output_dock/lig-dump-rec-1.all_poses.pdbqt
 OpenBabel06202210173D

 22 23  0  0  1  0  0  0  0  0999 V2000
   -9.9760   15.5170   14.5250 C   0  0  1  0  0  3  0  0  0  0  0  0
  -10.3710   14.2610   15.0180 O   0  0  0  0  0  0  0  0  0  0  0  0
  -10.9520   14.5380   16.2200 C   0  0  2  0  0  3  0  0  0  0  0  0
  -11.5450   15.9160   16.3020 C   0  0  0  0  0  2  0  0  0  0  0  0
  -11.0860   16.4880   15.0010 C   0  0  2  0  0  3  0  0  0  0  0  0
  -10.5260   13.9350   17.4420 N   0  0  0  0  0  0  0  0  0  0  0  0
  -10.5110   14.7510   18.5370 C   0  0  0  0  0  3  0  0  0  0  0  0
  -10.1540   14.2390   19.7720 C   0  0  0  0  0  3  0  0  0  0  0  0
   -9.9840   12.8700   19.8830 C   0  0  0  0  0  0  0  0  0  0  0  0
   -9.6930   12.3560   20.9770 O   0  0  0  0  0  0  0  0  0  0  0  0
   -9.9970   12.0730   18.7560 N   0  0  0  0  0  0  0  0  0  0  0  0
   -9.6150   11.1490   18.8190 H   0  0  0  0  0  0  0  0  0  0  0  0
  -10.3160   12.5890   17.5390 C   0  0  0  0  0  0  0  0  0  0  0  0
  -10.3500   11.8510   16.5500 O   0  0  0  0  0  0  0  0  0  0  0  0
  -12.1960   16.4630   14.1450 O   0  0  0  0  0  0  0  0  0  0  0  0
  -12.8600   17.1110   14.4570 H   0  0  0  0  0  0  0  0  0  0  0  0
   -8.5890   15.8810   15.0530 C   0  0  0  0  0  2  0  0  0  0  0  0
   -7.6320   14.8860   14.7300 O   0  0  0  0  0  0  0  0  0  0  0  0
   -6.4030   14.5990   15.7040 P   0  0  0  0  0  0  0  0  0  0  0  0
   -6.9780   14.0390   16.9510 O   0  0  0  0  0  1  0  0  0  0  0  0
   -5.5150   13.6450   14.9880 O   0  0  0  0  0  0  0  0  0  0  0  0
   -5.6350   15.8620   16.0450 O   0  0  0  0  0  1  0  0  0  0  0  0
  1  5  1  0  0  0  0
  1  2  1  0  0  0  0
  1 17  1  1  0  0  0
  2  3  1  0  0  0  0
  3  4  1  1  0  0  0
  3  6  1  0  0  0  0
  5 15  1  6  0  0  0
  5  4  1  0  0  0  0
  6 13  1  0  0  0  0
  6  7  1  0  0  0  0
  7  8  2  0  0  0  0
  8  9  1  0  0  0  0
  9 10  2  0  0  0  0
 11 12  1  0  0  0  0
 11  9  1  0  0  0  0
 13 11  1  0  0  0  0
 14 13  2  0  0  0  0
 15 16  1  0  0  0  0
 18 17  1  0  0  0  0
 18 19  1  0  0  0  0
 19 22  1  0  0  0  0
 19 20  1  0  0  0  0
 21 19  2  0  0  0  0
M  END
$$$$
output_dock/lig-dump-rec-1.all_poses.pdbqt
 OpenBabel06202210173D

 22 23  0  0  1  0  0  0  0  0999 V2000
  -10.8890   15.7020   18.2720 C   0  0  1  0  0  3  0  0  0  0  0  0
  -10.0750   16.5470   17.4960 O   0  0  0  0  0  0  0  0  0  0  0  0
  -10.1960   16.0600   16.2290 C   0  0  2  0  0  3  0  0  0  0  0  0
  -11.4970   15.3550   15.9730 C   0  0  0  0  0  2  0  0  0  0  0  0
  -12.0820   15.3550   17.3470 C   0  0  2  0  0  3  0  0  0  0  0  0
   -9.0710   15.6650   15.4420 N   0  0  0  0  0  0  0  0  0  0  0  0
   -9.2300   14.5290   14.7010 C   0  0  0  0  0  3  0  0  0  0  0  0
   -8.2070   14.0980   13.8740 C   0  0  0  0  0  3  0  0  0  0  0  0
   -7.1170   14.9320   13.7020 C   0  0  0  0  0  0  0  0  0  0  0  0
   -6.1850   14.6050   12.9470 O   0  0  0  0  0  0  0  0  0  0  0  0
   -6.9810   16.0700   14.4720 N   0  0  0  0  0  0  0  0  0  0  0  0
   -6.0820   16.5070   14.5260 H   0  0  0  0  0  0  0  0  0  0  0  0
   -7.9760   16.4700   15.3080 C   0  0  0  0  0  0  0  0  0  0  0  0
   -7.8460   17.5080   15.9640 O   0  0  0  0  0  0  0  0  0  0  0  0
  -13.0560   16.3620   17.3610 O   0  0  0  0  0  0  0  0  0  0  0  0
  -13.2660   16.5960   18.2890 H   0  0  0  0  0  0  0  0  0  0  0  0
  -10.0980   14.4740   18.7240 C   0  0  0  0  0  2  0  0  0  0  0  0
  -10.6350   13.2810   18.1810 O   0  0  0  0  0  0  0  0  0  0  0  0
   -9.6730   12.0990   17.7110 P   0  0  0  0  0  0  0  0  0  0  0  0
   -8.3180   12.6890   17.5840 O   0  0  0  0  0  1  0  0  0  0  0  0
   -9.7590   11.0470   18.7580 O   0  0  0  0  0  1  0  0  0  0  0  0
  -10.0830   11.5260   16.3670 O   0  0  0  0  0  0  0  0  0  0  0  0
  1 17  1  6  0  0  0
  2  1  1  0  0  0  0
  3  6  1  1  0  0  0
  3  2  1  0  0  0  0
  4  3  1  0  0  0  0
  4  5  1  0  0  0  0
  5 15  1  6  0  0  0
  5  1  1  0  0  0  0
  7  6  1  0  0  0  0
  8  7  2  0  0  0  0
  9  8  1  0  0  0  0
  9 11  1  0  0  0  0
 10  9  2  0  0  0  0
 11 12  1  0  0  0  0
 11 13  1  0  0  0  0
 13  6  1  0  0  0  0
 13 14  2  0  0  0  0
 15 16  1  0  0  0  0
 18 17  1  0  0  0  0
 19 18  1  0  0  0  0
 19 21  1  0  0  0  0
 20 19  1  0  0  0  0
 22 19  2  0  0  0  0
M  END
$$$$
output_dock/lig-dump-rec-1.all_poses.pdbqt
 OpenBabel06202210173D

 22 23  0  0  1  0  0  0  0  0999 V2000
   -3.4800   20.6240   -2.4810 C   0  0  1  0  0  3  0  0  0  0  0  0
   -4.7560   20.1220   -2.1690 O   0  0  0  0  0  0  0  0  0  0  0  0
   -4.9990   20.5780   -0.9070 C   0  0  2  0  0  3  0  0  0  0  0  0
   -4.2790   21.8540   -0.5760 C   0  0  0  0  0  2  0  0  0  0  0  0
   -3.4310   22.0130   -1.7940 C   0  0  2  0  0  3  0  0  0  0  0  0
   -5.3270   19.7100    0.1790 N   0  0  0  0  0  0  0  0  0  0  0  0
   -4.6990   19.9720    1.3630 C   0  0  0  0  0  3  0  0  0  0  0  0
   -4.9920   19.2090    2.4800 C   0  0  0  0  0  3  0  0  0  0  0  0
   -6.0390   18.3090    2.3950 C   0  0  0  0  0  0  0  0  0  0  0  0
   -6.3620   17.6210    3.3790 O   0  0  0  0  0  0  0  0  0  0  0  0
   -6.6480   18.0610    1.1820 N   0  0  0  0  0  0  0  0  0  0  0  0
   -7.2060   17.2340    1.0870 H   0  0  0  0  0  0  0  0  0  0  0  0
   -6.3330   18.7910    0.0800 C   0  0  0  0  0  0  0  0  0  0  0  0
   -6.9120   18.5720   -0.9890 O   0  0  0  0  0  0  0  0  0  0  0  0
   -4.0460   22.9970   -2.5790 O   0  0  0  0  0  0  0  0  0  0  0  0
   -3.3930   23.6940   -2.7960 H   0  0  0  0  0  0  0  0  0  0  0  0
   -2.3990   19.6660   -1.9820 C   0  0  0  0  0  2  0  0  0  0  0  0
   -2.9180   18.3660   -1.7580 O   0  0  0  0  0  0  0  0  0  0  0  0
   -2.4410   17.5090   -0.5010 P   0  0  0  0  0  0  0  0  0  0  0  0
   -1.5000   16.4880   -1.0230 O   0  0  0  0  0  0  0  0  0  0  0  0
   -1.8040   18.4660    0.4420 O   0  0  0  0  0  1  0  0  0  0  0  0
   -3.5970   16.8030    0.1830 O   0  0  0  0  0  1  0  0  0  0  0  0
  1  2  1  0  0  0  0
  1 17  1  1  0  0  0
  1  5  1  0  0  0  0
  2  3  1  0  0  0  0
  3  4  1  1  0  0  0
  3  6  1  0  0  0  0
  5 15  1  6  0  0  0
  5  4  1  0  0  0  0
  6  7  1  0  0  0  0
  7  8  2  0  0  0  0
  9  8  1  0  0  0  0
  9 10  2  0  0  0  0
 11  9  1  0  0  0  0
 12 11  1  0  0  0  0
 13  6  1  0  0  0  0
 13 11  1  0  0  0  0
 14 13  2  0  0  0  0
 16 15  1  0  0  0  0
 17 18  1  0  0  0  0
 18 19  1  0  0  0  0
 19 22  1  0  0  0  0
 19 21  1  0  0  0  0
 20 19  2  0  0  0  0
M  END
$$$$
output_dock/lig-dump-rec-1.all_poses.pdbqt
 OpenBabel06202210173D

 22 23  0  0  1  0  0  0  0  0999 V2000
   -6.0030   20.6330   -1.2030 C   0  0  1  0  0  3  0  0  0  0  0  0
   -6.8470   20.3830   -0.1060 O   0  0  0  0  0  0  0  0  0  0  0  0
   -6.0530   20.5820    0.9840 C   0  0  2  0  0  3  0  0  0  0  0  0
   -4.9270   21.5460    0.7430 C   0  0  0  0  0  2  0  0  0  0  0  0
   -5.0750   21.7780   -0.7250 C   0  0  2  0  0  3  0  0  0  0  0  0
   -5.8610   19.5900    1.9930 N   0  0  0  0  0  0  0  0  0  0  0  0
   -4.7940   18.7560    1.8150 C   0  0  0  0  0  3  0  0  0  0  0  0
   -4.5060   17.7940    2.7680 C   0  0  0  0  0  3  0  0  0  0  0  0
   -5.2190   17.8210    3.9530 C   0  0  0  0  0  0  0  0  0  0  0  0
   -4.9780   16.9980    4.8530 O   0  0  0  0  0  0  0  0  0  0  0  0
   -6.2980   18.6700    4.0990 N   0  0  0  0  0  0  0  0  0  0  0  0
   -6.9500   18.4920    4.8380 H   0  0  0  0  0  0  0  0  0  0  0  0
   -6.5950   19.5910    3.1440 C   0  0  0  0  0  0  0  0  0  0  0  0
   -7.5470   20.3600    3.3090 O   0  0  0  0  0  0  0  0  0  0  0  0
   -5.6870   23.0310   -0.8670 O   0  0  0  0  0  0  0  0  0  0  0  0
   -5.6380   23.3110   -1.8040 H   0  0  0  0  0  0  0  0  0  0  0  0
   -5.2450   19.3620   -1.5870 C   0  0  0  0  0  2  0  0  0  0  0  0
   -3.9170   19.6500   -1.9880 O   0  0  0  0  0  0  0  0  0  0  0  0
   -2.7750   18.5440   -1.8620 P   0  0  0  0  0  0  0  0  0  0  0  0
   -2.4900   18.0780   -3.2410 O   0  0  0  0  0  0  0  0  0  0  0  0
   -1.6140   19.2120   -1.2170 O   0  0  0  0  0  1  0  0  0  0  0  0
   -3.2170   17.3560   -1.0280 O   0  0  0  0  0  1  0  0  0  0  0  0
  1 17  1  1  0  0  0
  1  5  1  0  0  0  0
  1  2  1  0  0  0  0
  2  3  1  0  0  0  0
  3  4  1  6  0  0  0
  3  6  1  0  0  0  0
  5 15  1  1  0  0  0
  5  4  1  0  0  0  0
  6 13  1  0  0  0  0
  7  6  1  0  0  0  0
  7  8  2  0  0  0  0
  8  9  1  0  0  0  0
  9 11  1  0  0  0  0
  9 10  2  0  0  0  0
 11 12  1  0  0  0  0
 13 14  2  0  0  0  0
 13 11  1  0  0  0  0
 16 15  1  0  0  0  0
 18 19  1  0  0  0  0
 18 17  1  0  0  0  0
 19 21  1  0  0  0  0
 19 22  1  0  0  0  0
 20 19  2  0  0  0  0
M  END
$$$$
output_dock/lig-dump-rec-1.all_poses.pdbqt
 OpenBabel06202210173D

 22 23  0  0  1  0  0  0  0  0999 V2000
   -9.5210   14.4350   14.7270 C   0  0  1  0  0  3  0  0  0  0  0  0
  -10.7230   13.7690   15.0250 O   0  0  0  0  0  0  0  0  0  0  0  0
  -11.3040   14.5370   15.9900 C   0  0  2  0  0  3  0  0  0  0  0  0
  -10.9110   15.9860   15.9270 C   0  0  0  0  0  2  0  0  0  0  0  0
   -9.8670   15.9400   14.8610 C   0  0  2  0  0  3  0  0  0  0  0  0
  -11.6930   14.0180   17.2620 N   0  0  0  0  0  0  0  0  0  0  0  0
  -10.8510   13.0950   17.8130 C   0  0  0  0  0  3  0  0  0  0  0  0
  -11.1260   12.5730   19.0640 C   0  0  0  0  0  3  0  0  0  0  0  0
  -12.1640   13.1320   19.7870 C   0  0  0  0  0  0  0  0  0  0  0  0
  -12.4340   12.7200   20.9280 O   0  0  0  0  0  0  0  0  0  0  0  0
  -13.0030   14.0580   19.1990 N   0  0  0  0  0  0  0  0  0  0  0  0
  -13.8860   14.2470   19.6330 H   0  0  0  0  0  0  0  0  0  0  0  0
  -12.7460   14.5430   17.9550 C   0  0  0  0  0  0  0  0  0  0  0  0
  -13.4930   15.3930   17.4620 O   0  0  0  0  0  0  0  0  0  0  0  0
  -10.4700   16.4350   13.6970 O   0  0  0  0  0  0  0  0  0  0  0  0
  -10.4100   17.4130   13.6910 H   0  0  0  0  0  0  0  0  0  0  0  0
   -8.4150   13.9840   15.6810 C   0  0  0  0  0  2  0  0  0  0  0  0
   -7.4180   14.9790   15.8300 O   0  0  0  0  0  0  0  0  0  0  0  0
   -6.0370   14.8680   15.0410 P   0  0  0  0  0  0  0  0  0  0  0  0
   -5.2160   16.0270   15.4690 O   0  0  0  0  0  1  0  0  0  0  0  0
   -5.4430   13.5580   15.4180 O   0  0  0  0  0  1  0  0  0  0  0  0
   -6.2290   14.9350   13.5380 O   0  0  0  0  0  0  0  0  0  0  0  0
  1  5  1  0  0  0  0
  1  2  1  0  0  0  0
  1 17  1  1  0  0  0
  2  3  1  0  0  0  0
  3  4  1  1  0  0  0
  3  6  1  0  0  0  0
  5 15  1  6  0  0  0
  5  4  1  0  0  0  0
  6  7  1  0  0  0  0
  6 13  1  0  0  0  0
  7  8  2  0  0  0  0
  8  9  1  0  0  0  0
  9 10  2  0  0  0  0
 11 12  1  0  0  0  0
 11  9  1  0  0  0  0
 13 11  1  0  0  0  0
 14 13  2  0  0  0  0
 16 15  1  0  0  0  0
 17 18  1  0  0  0  0
 19 21  1  0  0  0  0
 19 20  1  0  0  0  0
 19 18  1  0  0  0  0
 22 19  2  0  0  0  0
M  END
$$$$
output_dock/lig-dump-rec-1.all_poses.pdbqt
 OpenBabel06202210173D

 22 23  0  0  1  0  0  0  0  0999 V2000
   -8.3580   14.1350   16.1960 C   0  0  1  0  0  3  0  0  0  0  0  0
   -8.4540   14.4870   17.5540 O   0  0  0  0  0  0  0  0  0  0  0  0
   -8.8790   13.3480   18.1690 C   0  0  2  0  0  3  0  0  0  0  0  0
   -8.4810   12.0890   17.4530 C   0  0  0  0  0  2  0  0  0  0  0  0
   -7.8800   12.6610   16.2110 C   0  0  2  0  0  3  0  0  0  0  0  0
  -10.0560   13.2980   18.9770 N   0  0  0  0  0  0  0  0  0  0  0  0
  -11.2430   13.3210   18.3040 C   0  0  0  0  0  3  0  0  0  0  0  0
  -12.4330   13.2310   19.0040 C   0  0  0  0  0  3  0  0  0  0  0  0
  -12.3700   12.9520   20.3570 C   0  0  0  0  0  0  0  0  0  0  0  0
  -13.4110   12.8300   21.0270 O   0  0  0  0  0  0  0  0  0  0  0  0
  -11.1550   12.9430   21.0110 N   0  0  0  0  0  0  0  0  0  0  0  0
  -11.1480   13.0050   22.0110 H   0  0  0  0  0  0  0  0  0  0  0  0
   -9.9900   13.0650   20.3210 C   0  0  0  0  0  0  0  0  0  0  0  0
   -8.9120   13.0240   20.9240 O   0  0  0  0  0  0  0  0  0  0  0  0
   -6.4900   12.5710   16.3680 O   0  0  0  0  0  0  0  0  0  0  0  0
   -6.0540   12.7600   15.5120 H   0  0  0  0  0  0  0  0  0  0  0  0
   -9.7060   14.3250   15.5030 C   0  0  0  0  0  2  0  0  0  0  0  0
  -10.2770   15.5850   15.8100 O   0  0  0  0  0  0  0  0  0  0  0  0
  -11.8300   15.8520   15.5700 P   0  0  0  0  0  0  0  0  0  0  0  0
  -11.9340   16.5980   14.2930 O   0  0  0  0  0  0  0  0  0  0  0  0
  -12.4820   14.5170   15.5240 O   0  0  0  0  0  1  0  0  0  0  0  0
  -12.4450   16.6890   16.6760 O   0  0  0  0  0  1  0  0  0  0  0  0
  1 17  1  1  0  0  0
  1  5  1  0  0  0  0
  1  2  1  0  0  0  0
  2  3  1  0  0  0  0
  3  4  1  6  0  0  0
  3  6  1  0  0  0  0
  5 15  1  1  0  0  0
  5  4  1  0  0  0  0
  6 13  1  0  0  0  0
  7  6  1  0  0  0  0
  7  8  2  0  0  0  0
  8  9  1  0  0  0  0
  9 11  1  0  0  0  0
  9 10  2  0  0  0  0
 11 12  1  0  0  0  0
 13 14  2  0  0  0  0
 13 11  1  0  0  0  0
 16 15  1  0  0  0  0
 17 18  1  0  0  0  0
 19 18  1  0  0  0  0
 19 22  1  0  0  0  0
 20 19  2  0  0  0  0
 21 19  1  0  0  0  0
M  END
$$$$
output_dock/lig-dump-rec-1.all_poses.pdbqt
 OpenBabel06202210173D

 22 23  0  0  1  0  0  0  0  0999 V2000
  -10.9420   15.2690   17.6050 C   0  0  1  0  0  3  0  0  0  0  0  0
   -9.7180   15.9140   17.3560 O   0  0  0  0  0  0  0  0  0  0  0  0
   -9.6830   16.0600   16.0010 C   0  0  2  0  0  3  0  0  0  0  0  0
  -11.0420   16.1380   15.3660 C   0  0  0  0  0  2  0  0  0  0  0  0
  -11.9110   15.8530   16.5460 C   0  0  2  0  0  3  0  0  0  0  0  0
   -8.6120   15.5650   15.1970 N   0  0  0  0  0  0  0  0  0  0  0  0
   -7.4060   16.1850   15.3620 C   0  0  0  0  0  3  0  0  0  0  0  0
   -6.3020   15.7390   14.6560 C   0  0  0  0  0  3  0  0  0  0  0  0
   -6.4250   14.5690   13.9290 C   0  0  0  0  0  0  0  0  0  0  0  0
   -5.4540   14.1100   13.3020 O   0  0  0  0  0  0  0  0  0  0  0  0
   -7.6590   13.9710   13.7750 N   0  0  0  0  0  0  0  0  0  0  0  0
   -7.7760   13.2950   13.0440 H   0  0  0  0  0  0  0  0  0  0  0  0
   -8.7480   14.4330   14.4450 C   0  0  0  0  0  0  0  0  0  0  0  0
   -9.8360   13.8640   14.3150 O   0  0  0  0  0  0  0  0  0  0  0  0
  -12.4390   17.0860   16.9540 O   0  0  0  0  0  0  0  0  0  0  0  0
  -13.4170   17.0340   16.9610 H   0  0  0  0  0  0  0  0  0  0  0  0
  -10.7740   13.7540   17.4980 C   0  0  0  0  0  2  0  0  0  0  0  0
   -9.5010   13.3380   17.9620 O   0  0  0  0  0  0  0  0  0  0  0  0
   -8.9920   11.8490   17.7040 P   0  0  0  0  0  0  0  0  0  0  0  0
   -7.5120   11.9210   17.6220 O   0  0  0  0  0  1  0  0  0  0  0  0
   -9.4760   11.0360   18.8510 O   0  0  0  0  0  1  0  0  0  0  0  0
   -9.5240   11.2780   16.4040 O   0  0  0  0  0  0  0  0  0  0  0  0
  1 17  1  6  0  0  0
  2  1  1  0  0  0  0
  3  6  1  6  0  0  0
  3  2  1  0  0  0  0
  4  3  1  0  0  0  0
  4  5  1  0  0  0  0
  5 15  1  1  0  0  0
  5  1  1  0  0  0  0
  6  7  1  0  0  0  0
  8  7  2  0  0  0  0
  9  8  1  0  0  0  0
 10  9  2  0  0  0  0
 11  9  1  0  0  0  0
 11 13  1  0  0  0  0
 12 11  1  0  0  0  0
 13  6  1  0  0  0  0
 14 13  2  0  0  0  0
 15 16  1  0  0  0  0
 17 18  1  0  0  0  0
 19 18  1  0  0  0  0
 19 21  1  0  0  0  0
 20 19  1  0  0  0  0
 22 19  2  0  0  0  0
M  END
$$$$
output_dock/lig-dump-rec-1.all_poses.pdbqt
 OpenBabel06202210173D

 22 23  0  0  1  0  0  0  0  0999 V2000
   10.2190   12.5520   18.3570 C   0  0  1  0  0  3  0  0  0  0  0  0
   10.8850   11.3140   18.4060 O   0  0  0  0  0  0  0  0  0  0  0  0
   11.3250   11.1170   17.1310 C   0  0  2  0  0  3  0  0  0  0  0  0
   11.5600   12.3890   16.3690 C   0  0  0  0  0  2  0  0  0  0  0  0
   11.0360   13.3920   17.3420 C   0  0  2  0  0  3  0  0  0  0  0  0
   11.0030    9.9490   16.3740 N   0  0  0  0  0  0  0  0  0  0  0  0
    9.9240   10.0560   15.5430 C   0  0  0  0  0  3  0  0  0  0  0  0
    9.5680    8.9870   14.7390 C   0  0  0  0  0  3  0  0  0  0  0  0
   10.4230    7.9010   14.6850 C   0  0  0  0  0  0  0  0  0  0  0  0
   10.1640    6.9290   13.9550 O   0  0  0  0  0  0  0  0  0  0  0  0
   11.5000    7.8200   15.5440 N   0  0  0  0  0  0  0  0  0  0  0  0
   11.9410    6.9300   15.6760 H   0  0  0  0  0  0  0  0  0  0  0  0
   11.8260    8.8600   16.3560 C   0  0  0  0  0  0  0  0  0  0  0  0
   12.8130    8.7770   17.0950 O   0  0  0  0  0  0  0  0  0  0  0  0
   12.1560   13.9810   17.9450 O   0  0  0  0  0  0  0  0  0  0  0  0
   12.2470   13.6430   18.8590 H   0  0  0  0  0  0  0  0  0  0  0  0
    8.7620   12.3530   17.9400 C   0  0  0  0  0  2  0  0  0  0  0  0
    7.9510   11.9820   19.0410 O   0  0  0  0  0  0  0  0  0  0  0  0
    6.3620   11.9730   18.9110 P   0  0  0  0  0  0  0  0  0  0  0  0
    5.8470   12.8260   20.0090 O   0  0  0  0  0  1  0  0  0  0  0  0
    6.0500   12.5050   17.5590 O   0  0  0  0  0  0  0  0  0  0  0  0
    5.7830   10.5790   19.0640 O   0  0  0  0  0  1  0  0  0  0  0  0
  1 17  1  6  0  0  0
  1  2  1  0  0  0  0
  3  4  1  6  0  0  0
  3  2  1  0  0  0  0
  4  5  1  0  0  0  0
  5 15  1  1  0  0  0
  5  1  1  0  0  0  0
  6  3  1  0  0  0  0
  7  6  1  0  0  0  0
  8  7  2  0  0  0  0
  9  8  1  0  0  0  0
  9 11  1  0  0  0  0
 10  9  2  0  0  0  0
 11 12  1  0  0  0  0
 11 13  1  0  0  0  0
 13  6  1  0  0  0  0
 13 14  2  0  0  0  0
 15 16  1  0  0  0  0
 17 18  1  0  0  0  0
 19 18  1  0  0  0  0
 19 22  1  0  0  0  0
 19 20  1  0  0  0  0
 21 19  2  0  0  0  0
M  END
$$$$
output_dock/lig-dump-rec-1.all_poses.pdbqt
 OpenBabel06202210173D

 22 23  0  0  1  0  0  0  0  0999 V2000
  -10.6070   14.9460   15.4470 C   0  0  1  0  0  3  0  0  0  0  0  0
  -11.2510   13.9240   16.1660 O   0  0  0  0  0  0  0  0  0  0  0  0
  -11.4470   14.4550   17.4060 C   0  0  2  0  0  3  0  0  0  0  0  0
  -11.5590   15.9530   17.4110 C   0  0  0  0  0  2  0  0  0  0  0  0
  -11.2380   16.2560   15.9850 C   0  0  2  0  0  3  0  0  0  0  0  0
  -10.9730   13.8300   18.5990 N   0  0  0  0  0  0  0  0  0  0  0  0
   -9.6240   13.8830   18.8050 C   0  0  0  0  0  3  0  0  0  0  0  0
   -9.0830   13.3420   19.9580 C   0  0  0  0  0  3  0  0  0  0  0  0
   -9.9530   12.9110   20.9440 C   0  0  0  0  0  0  0  0  0  0  0  0
   -9.5180   12.4450   22.0110 O   0  0  0  0  0  0  0  0  0  0  0  0
  -11.3110   12.8620   20.7020 N   0  0  0  0  0  0  0  0  0  0  0  0
  -11.8860   12.3110   21.3090 H   0  0  0  0  0  0  0  0  0  0  0  0
  -11.8340   13.3660   19.5520 C   0  0  0  0  0  0  0  0  0  0  0  0
  -13.0550   13.3390   19.3700 O   0  0  0  0  0  0  0  0  0  0  0  0
  -12.4590   16.5360   15.3560 O   0  0  0  0  0  0  0  0  0  0  0  0
  -13.1670   16.5830   16.0300 H   0  0  0  0  0  0  0  0  0  0  0  0
   -9.0960   14.8720   15.6610 C   0  0  0  0  0  2  0  0  0  0  0  0
   -8.3860   15.3420   14.5280 O   0  0  0  0  0  0  0  0  0  0  0  0
   -8.6320   14.6950   13.0910 P   0  0  0  0  0  0  0  0  0  0  0  0
   -9.4740   15.6570   12.3380 O   0  0  0  0  0  0  0  0  0  0  0  0
   -7.2890   14.4920   12.4870 O   0  0  0  0  0  1  0  0  0  0  0  0
   -9.3660   13.3690   13.1780 O   0  0  0  0  0  1  0  0  0  0  0  0
  1 17  1  1  0  0  0
  1  5  1  0  0  0  0
  1  2  1  0  0  0  0
  2  3  1  0  0  0  0
  3  4  1  6  0  0  0
  3  6  1  0  0  0  0
  5 15  1  6  0  0  0
  5  4  1  0  0  0  0
  6  7  1  0  0  0  0
  6 13  1  0  0  0  0
  7  8  2  0  0  0  0
  8  9  1  0  0  0  0
  9 10  2  0  0  0  0
 11  9  1  0  0  0  0
 11 12  1  0  0  0  0
 13 11  1  0  0  0  0
 14 13  2  0  0  0  0
 15 16  1  0  0  0  0
 18 17  1  0  0  0  0
 19 22  1  0  0  0  0
 19 18  1  0  0  0  0
 20 19  2  0  0  0  0
 21 19  1  0  0  0  0
M  END
$$$$
output_dock/lig-dump-rec-1.all_poses.pdbqt
 OpenBabel06202210173D

 22 23  0  0  1  0  0  0  0  0999 V2000
  -10.8400   12.9960   20.0590 C   0  0  1  0  0  3  0  0  0  0  0  0
  -10.6910   14.3630   19.7660 O   0  0  0  0  0  0  0  0  0  0  0  0
  -11.5930   14.5960   18.7710 C   0  0  2  0  0  3  0  0  0  0  0  0
  -12.7710   13.6640   18.7940 C   0  0  0  0  0  2  0  0  0  0  0  0
  -12.3540   12.7220   19.8740 C   0  0  2  0  0  3  0  0  0  0  0  0
  -11.2270   15.1580   17.5110 N   0  0  0  0  0  0  0  0  0  0  0  0
  -10.1090   15.9420   17.5090 C   0  0  0  0  0  3  0  0  0  0  0  0
   -9.6560   16.4910   16.3220 C   0  0  0  0  0  3  0  0  0  0  0  0
  -10.2620   16.0870   15.1460 C   0  0  0  0  0  0  0  0  0  0  0  0
   -9.8730   16.5270   14.0510 O   0  0  0  0  0  0  0  0  0  0  0  0
  -11.3960   15.3000   15.1820 N   0  0  0  0  0  0  0  0  0  0  0  0
  -11.9640   15.2410   14.3580 H   0  0  0  0  0  0  0  0  0  0  0  0
  -11.8560   14.7910   16.3560 C   0  0  0  0  0  0  0  0  0  0  0  0
  -12.8550   14.0650   16.3590 O   0  0  0  0  0  0  0  0  0  0  0  0
  -13.0850   13.0800   21.0150 O   0  0  0  0  0  0  0  0  0  0  0  0
  -12.9290   14.0260   21.2160 H   0  0  0  0  0  0  0  0  0  0  0  0
   -9.9580   12.1580   19.1330 C   0  0  0  0  0  2  0  0  0  0  0  0
   -8.6690   12.7270   18.9860 O   0  0  0  0  0  0  0  0  0  0  0  0
   -7.9640   12.7770   17.5570 P   0  0  0  0  0  0  0  0  0  0  0  0
   -9.0500   12.6900   16.5500 O   0  0  0  0  0  0  0  0  0  0  0  0
   -7.2160   14.0600   17.5030 O   0  0  0  0  0  1  0  0  0  0  0  0
   -7.0110   11.6140   17.3460 O   0  0  0  0  0  1  0  0  0  0  0  0
  1 17  1  6  0  0  0
  2  1  1  0  0  0  0
  3  6  1  6  0  0  0
  3  4  1  0  0  0  0
  3  2  1  0  0  0  0
  4  5  1  0  0  0  0
  5  1  1  0  0  0  0
  5 15  1  1  0  0  0
  7  6  1  0  0  0  0
  8  7  2  0  0  0  0
  9 11  1  0  0  0  0
  9  8  1  0  0  0  0
 10  9  2  0  0  0  0
 11 13  1  0  0  0  0
 12 11  1  0  0  0  0
 13 14  2  0  0  0  0
 13  6  1  0  0  0  0
 15 16  1  0  0  0  0
 18 17  1  0  0  0  0
 19 18  1  0  0  0  0
 20 19  2  0  0  0  0
 21 19  1  0  0  0  0
 22 19  1  0  0  0  0
M  END
$$$$
output_dock/lig-dump-rec-1.all_poses.pdbqt
 OpenBabel06202210173D

 22 23  0  0  1  0  0  0  0  0999 V2000
  -11.5010   15.8780   15.4510 C   0  0  1  0  0  3  0  0  0  0  0  0
  -11.5400   14.4870   15.6550 O   0  0  0  0  0  0  0  0  0  0  0  0
  -11.0730   14.3190   16.9250 C   0  0  2  0  0  3  0  0  0  0  0  0
  -11.3100   15.5030   17.8180 C   0  0  0  0  0  2  0  0  0  0  0  0
  -11.8580   16.4830   16.8330 C   0  0  2  0  0  3  0  0  0  0  0  0
   -9.9620   13.4770   17.2350 N   0  0  0  0  0  0  0  0  0  0  0  0
   -8.7660   13.8380   16.6840 C   0  0  0  0  0  3  0  0  0  0  0  0
   -7.6280   13.1040   16.9680 C   0  0  0  0  0  3  0  0  0  0  0  0
   -7.7140   12.1230   17.9390 C   0  0  0  0  0  0  0  0  0  0  0  0
   -6.7130   11.4550   18.2540 O   0  0  0  0  0  0  0  0  0  0  0  0
   -8.9390   11.7750   18.4720 N   0  0  0  0  0  0  0  0  0  0  0  0
   -9.0190   10.9040   18.9610 H   0  0  0  0  0  0  0  0  0  0  0  0
  -10.0600   12.4800   18.1630 C   0  0  0  0  0  0  0  0  0  0  0  0
  -11.1400   12.1690   18.6750 O   0  0  0  0  0  0  0  0  0  0  0  0
  -13.2430   16.5170   17.0380 O   0  0  0  0  0  0  0  0  0  0  0  0
  -13.4830   15.8760   17.7390 H   0  0  0  0  0  0  0  0  0  0  0  0
  -10.1220   16.3010   14.9450 C   0  0  0  0  0  2  0  0  0  0  0  0
   -9.9880   16.0760   13.5520 O   0  0  0  0  0  0  0  0  0  0  0  0
   -8.8860   15.0670   12.9970 P   0  0  0  0  0  0  0  0  0  0  0  0
   -9.4290   13.7010   13.2010 O   0  0  0  0  0  1  0  0  0  0  0  0
   -8.6860   15.4100   11.5640 O   0  0  0  0  0  0  0  0  0  0  0  0
   -7.5710   15.1850   13.7450 O   0  0  0  0  0  1  0  0  0  0  0  0
  1 17  1  1  0  0  0
  1  2  1  0  0  0  0
  1  5  1  0  0  0  0
  2  3  1  0  0  0  0
  3  6  1  6  0  0  0
  3  4  1  0  0  0  0
  5 15  1  6  0  0  0
  5  4  1  0  0  0  0
  6 13  1  0  0  0  0
  7  8  2  0  0  0  0
  7  6  1  0  0  0  0
  8  9  1  0  0  0  0
  9 10  2  0  0  0  0
  9 11  1  0  0  0  0
 11 12  1  0  0  0  0
 13 11  1  0  0  0  0
 13 14  2  0  0  0  0
 15 16  1  0  0  0  0
 18 17  1  0  0  0  0
 19 20  1  0  0  0  0
 19 18  1  0  0  0  0
 19 22  1  0  0  0  0
 21 19  2  0  0  0  0
M  END
$$$$
output_dock/lig-dump-rec-1.all_poses.pdbqt
 OpenBabel06202210173D

 22 23  0  0  1  0  0  0  0  0999 V2000
   -8.7260   13.3750   19.6690 C   0  0  1  0  0  3  0  0  0  0  0  0
   -9.3560   14.6220   19.5090 O   0  0  0  0  0  0  0  0  0  0  0  0
  -10.6100   14.3120   19.0730 C   0  0  2  0  0  3  0  0  0  0  0  0
  -11.0890   12.9600   19.5190 C   0  0  0  0  0  2  0  0  0  0  0  0
   -9.8520   12.4320   20.1660 C   0  0  2  0  0  3  0  0  0  0  0  0
  -11.1590   14.8350   17.8620 N   0  0  0  0  0  0  0  0  0  0  0  0
  -11.3730   16.1840   17.8370 C   0  0  0  0  0  3  0  0  0  0  0  0
  -11.8600   16.7820   16.6880 C   0  0  0  0  0  3  0  0  0  0  0  0
  -11.9570   16.0090   15.5450 C   0  0  0  0  0  0  0  0  0  0  0  0
  -12.3600   16.5060   14.4790 O   0  0  0  0  0  0  0  0  0  0  0  0
  -11.7430   14.6470   15.6050 N   0  0  0  0  0  0  0  0  0  0  0  0
  -12.0710   14.0770   14.8490 H   0  0  0  0  0  0  0  0  0  0  0  0
  -11.2950   14.0600   16.7470 C   0  0  0  0  0  0  0  0  0  0  0  0
  -11.0820   12.8440   16.7680 O   0  0  0  0  0  0  0  0  0  0  0  0
  -10.0490   12.5490   21.5490 O   0  0  0  0  0  0  0  0  0  0  0  0
  -10.0720   11.6560   21.9490 H   0  0  0  0  0  0  0  0  0  0  0  0
   -8.1000   12.9240   18.3500 C   0  0  0  0  0  2  0  0  0  0  0  0
   -7.3130   13.9500   17.7700 O   0  0  0  0  0  0  0  0  0  0  0  0
   -7.4360   14.2860   16.2160 P   0  0  0  0  0  0  0  0  0  0  0  0
   -6.0500   14.4090   15.7030 O   0  0  0  0  0  1  0  0  0  0  0  0
   -8.1900   13.1610   15.6030 O   0  0  0  0  0  0  0  0  0  0  0  0
   -8.1650   15.5930   15.9680 O   0  0  0  0  0  1  0  0  0  0  0  0
  1 17  1  6  0  0  0
  1  5  1  0  0  0  0
  2  1  1  0  0  0  0
  3  6  1  6  0  0  0
  3  2  1  0  0  0  0
  3  4  1  0  0  0  0
  4  5  1  0  0  0  0
  5 15  1  1  0  0  0
  7  6  1  0  0  0  0
  8  7  2  0  0  0  0
  9 11  1  0  0  0  0
  9  8  1  0  0  0  0
 10  9  2  0  0  0  0
 11 13  1  0  0  0  0
 12 11  1  0  0  0  0
 13 14  2  0  0  0  0
 13  6  1  0  0  0  0
 15 16  1  0  0  0  0
 18 17  1  0  0  0  0
 19 18  1  0  0  0  0
 20 19  1  0  0  0  0
 21 19  2  0  0  0  0
 22 19  1  0  0  0  0
M  END
$$$$
output_dock/lig-dump-rec-1.all_poses.pdbqt
 OpenBabel06202210173D

 22 23  0  0  1  0  0  0  0  0999 V2000
   -9.0480   14.6090   13.9310 C   0  0  1  0  0  3  0  0  0  0  0  0
  -10.0230   13.8400   14.5910 O   0  0  0  0  0  0  0  0  0  0  0  0
  -10.3850   14.6000   15.6630 C   0  0  2  0  0  3  0  0  0  0  0  0
  -10.2020   16.0750   15.4470 C   0  0  0  0  0  2  0  0  0  0  0  0
   -9.5170   16.0740   14.1210 C   0  0  2  0  0  3  0  0  0  0  0  0
  -10.3210   14.1220   17.0070 N   0  0  0  0  0  0  0  0  0  0  0  0
  -10.3490   12.7650   17.1600 C   0  0  0  0  0  3  0  0  0  0  0  0
  -10.2460   12.2130   18.4250 C   0  0  0  0  0  3  0  0  0  0  0  0
   -9.9510   13.0580   19.4800 C   0  0  0  0  0  0  0  0  0  0  0  0
   -9.8180   12.6080   20.6310 O   0  0  0  0  0  0  0  0  0  0  0  0
   -9.9370   14.4260   19.2950 N   0  0  0  0  0  0  0  0  0  0  0  0
   -9.9870   15.0190   20.1010 H   0  0  0  0  0  0  0  0  0  0  0  0
  -10.0720   14.9640   18.0530 C   0  0  0  0  0  0  0  0  0  0  0  0
  -10.0270   16.1890   17.9070 O   0  0  0  0  0  0  0  0  0  0  0  0
  -10.4870   16.4310   13.1750 O   0  0  0  0  0  0  0  0  0  0  0  0
  -10.0460   16.7840   12.3750 H   0  0  0  0  0  0  0  0  0  0  0  0
   -7.6670   14.3360   14.5260 C   0  0  0  0  0  2  0  0  0  0  0  0
   -6.7290   15.3240   14.1380 O   0  0  0  0  0  0  0  0  0  0  0  0
   -5.8950   16.1250   15.2360 P   0  0  0  0  0  0  0  0  0  0  0  0
   -5.6520   15.1770   16.3510 O   0  0  0  0  0  1  0  0  0  0  0  0
   -4.6460   16.5760   14.5670 O   0  0  0  0  0  0  0  0  0  0  0  0
   -6.6560   17.3230   15.7720 O   0  0  0  0  0  1  0  0  0  0  0  0
  1  5  1  0  0  0  0
  1 17  1  1  0  0  0
  1  2  1  0  0  0  0
  2  3  1  0  0  0  0
  3  4  1  1  0  0  0
  3  6  1  0  0  0  0
  5 15  1  6  0  0  0
  5  4  1  0  0  0  0
  6  7  1  0  0  0  0
  6 13  1  0  0  0  0
  7  8  2  0  0  0  0
  8  9  1  0  0  0  0
  9 10  2  0  0  0  0
 11  9  1  0  0  0  0
 11 12  1  0  0  0  0
 13 11  1  0  0  0  0
 14 13  2  0  0  0  0
 16 15  1  0  0  0  0
 18 17  1  0  0  0  0
 18 19  1  0  0  0  0
 19 22  1  0  0  0  0
 19 20  1  0  0  0  0
 21 19  2  0  0  0  0
M  END
$$$$
output_dock/lig-dump-rec-1.all_poses.pdbqt
 OpenBabel06202210173D

 22 23  0  0  1  0  0  0  0  0999 V2000
  -10.5990   15.6170   17.9930 C   0  0  1  0  0  3  0  0  0  0  0  0
  -10.0260   16.4990   17.0610 O   0  0  0  0  0  0  0  0  0  0  0  0
  -10.3230   15.9500   15.8490 C   0  0  2  0  0  3  0  0  0  0  0  0
  -11.5730   15.1170   15.8530 C   0  0  0  0  0  2  0  0  0  0  0  0
  -11.8990   15.1210   17.3100 C   0  0  2  0  0  3  0  0  0  0  0  0
   -9.3250   15.6290   14.8800 N   0  0  0  0  0  0  0  0  0  0  0  0
   -8.2760   14.8790   15.3290 C   0  0  0  0  0  3  0  0  0  0  0  0
   -7.2860   14.4830   14.4470 C   0  0  0  0  0  3  0  0  0  0  0  0
   -7.4810   14.7250   13.1000 C   0  0  0  0  0  0  0  0  0  0  0  0
   -6.6360   14.3630   12.2630 O   0  0  0  0  0  0  0  0  0  0  0  0
   -8.5470   15.4950   12.6780 N   0  0  0  0  0  0  0  0  0  0  0  0
   -8.5260   15.8760   11.7520 H   0  0  0  0  0  0  0  0  0  0  0  0
   -9.5000   15.9080   13.5550 C   0  0  0  0  0  0  0  0  0  0  0  0
  -10.4610   16.5700   13.1500 O   0  0  0  0  0  0  0  0  0  0  0  0
  -12.9490   16.0330   17.4780 O   0  0  0  0  0  0  0  0  0  0  0  0
  -12.7960   16.8130   16.9060 H   0  0  0  0  0  0  0  0  0  0  0  0
   -9.6230   14.4880   18.3230 C   0  0  0  0  0  2  0  0  0  0  0  0
   -9.6370   14.1740   19.7050 O   0  0  0  0  0  0  0  0  0  0  0  0
  -10.3530   12.8500   20.2280 P   0  0  0  0  0  0  0  0  0  0  0  0
  -10.1810   11.8320   19.1620 O   0  0  0  0  0  0  0  0  0  0  0  0
   -9.6790   12.4840   21.5020 O   0  0  0  0  0  1  0  0  0  0  0  0
  -11.8360   13.0570   20.4690 O   0  0  0  0  0  1  0  0  0  0  0  0
  1 17  1  6  0  0  0
  2  1  1  0  0  0  0
  3  6  1  1  0  0  0
  3  4  1  0  0  0  0
  3  2  1  0  0  0  0
  4  5  1  0  0  0  0
  5 15  1  6  0  0  0
  5  1  1  0  0  0  0
  6  7  1  0  0  0  0
  8  7  2  0  0  0  0
  9  8  1  0  0  0  0
 10  9  2  0  0  0  0
 11  9  1  0  0  0  0
 11 13  1  0  0  0  0
 12 11  1  0  0  0  0
 13  6  1  0  0  0  0
 14 13  2  0  0  0  0
 16 15  1  0  0  0  0
 17 18  1  0  0  0  0
 18 19  1  0  0  0  0
 19 22  1  0  0  0  0
 19 21  1  0  0  0  0
 20 19  2  0  0  0  0
M  END
$$$$
output_dock/lig-dump-rec-1.all_poses.pdbqt
 OpenBabel06202210173D

 22 23  0  0  1  0  0  0  0  0999 V2000
   -8.6880   14.7790   14.7960 C   0  0  1  0  0  3  0  0  0  0  0  0
   -7.9680   14.0300   15.7440 O   0  0  0  0  0  0  0  0  0  0  0  0
   -8.8880   13.1670   16.2610 C   0  0  2  0  0  3  0  0  0  0  0  0
  -10.0070   12.8370   15.3150 C   0  0  0  0  0  2  0  0  0  0  0  0
   -9.6990   13.7710   14.1920 C   0  0  2  0  0  3  0  0  0  0  0  0
   -9.1640   13.0780   17.6590 N   0  0  0  0  0  0  0  0  0  0  0  0
  -10.3590   12.5100   17.9970 C   0  0  0  0  0  3  0  0  0  0  0  0
  -10.6890   12.3430   19.3300 C   0  0  0  0  0  3  0  0  0  0  0  0
   -9.7170   12.6090   20.2780 C   0  0  0  0  0  0  0  0  0  0  0  0
   -9.9530   12.4460   21.4880 O   0  0  0  0  0  0  0  0  0  0  0  0
   -8.5220   13.1910   19.9060 N   0  0  0  0  0  0  0  0  0  0  0  0
   -7.9540   13.6130   20.6150 H   0  0  0  0  0  0  0  0  0  0  0  0
   -8.2170   13.3830   18.5950 C   0  0  0  0  0  0  0  0  0  0  0  0
   -7.1290   13.8780   18.2840 O   0  0  0  0  0  0  0  0  0  0  0  0
   -9.1120   12.9950   13.1830 O   0  0  0  0  0  0  0  0  0  0  0  0
   -8.5870   13.5740   12.5930 H   0  0  0  0  0  0  0  0  0  0  0  0
   -9.3590   15.9770   15.4670 C   0  0  0  0  0  2  0  0  0  0  0  0
  -10.7650   15.9530   15.2910 O   0  0  0  0  0  0  0  0  0  0  0  0
  -11.7380   15.8800   16.5520 P   0  0  0  0  0  0  0  0  0  0  0  0
  -12.6030   17.0830   16.4830 O   0  0  0  0  0  1  0  0  0  0  0  0
  -12.4950   14.6060   16.4250 O   0  0  0  0  0  0  0  0  0  0  0  0
  -10.9790   15.9010   17.8650 O   0  0  0  0  0  1  0  0  0  0  0  0
  1 17  1  1  0  0  0
  1  2  1  0  0  0  0
  2  3  1  0  0  0  0
  3  4  1  6  0  0  0
  3  6  1  0  0  0  0
  5 15  1  6  0  0  0
  5  1  1  0  0  0  0
  5  4  1  0  0  0  0
  6  7  1  0  0  0  0
  6 13  1  0  0  0  0
  7  8  2  0  0  0  0
  8  9  1  0  0  0  0
  9 10  2  0  0  0  0
 11  9  1  0  0  0  0
 11 12  1  0  0  0  0
 13 11  1  0  0  0  0
 14 13  2  0  0  0  0
 16 15  1  0  0  0  0
 18 17  1  0  0  0  0
 18 19  1  0  0  0  0
 19 22  1  0  0  0  0
 20 19  1  0  0  0  0
 21 19  2  0  0  0  0
M  END
$$$$
output_dock/lig-dump-rec-1.all_poses.pdbqt
 OpenBabel06202210173D

 22 23  0  0  1  0  0  0  0  0999 V2000
   -9.4800   16.2400   13.8270 C   0  0  1  0  0  3  0  0  0  0  0  0
   -8.4990   15.8480   14.7550 O   0  0  0  0  0  0  0  0  0  0  0  0
   -8.4680   14.4880   14.6600 C   0  0  2  0  0  3  0  0  0  0  0  0
   -8.8880   13.9670   13.3150 C   0  0  0  0  0  2  0  0  0  0  0  0
   -9.3340   15.2320   12.6590 C   0  0  2  0  0  3  0  0  0  0  0  0
   -8.6600   13.6300   15.7850 N   0  0  0  0  0  0  0  0  0  0  0  0
   -9.6810   12.7290   15.6810 C   0  0  0  0  0  3  0  0  0  0  0  0
   -9.9100   11.8270   16.7050 C   0  0  0  0  0  3  0  0  0  0  0  0
   -8.9860   11.7640   17.7330 C   0  0  0  0  0  0  0  0  0  0  0  0
   -9.1290   10.9500   18.6620 O   0  0  0  0  0  0  0  0  0  0  0  0
   -7.9700   12.6940   17.8140 N   0  0  0  0  0  0  0  0  0  0  0  0
   -7.4840   12.7970   18.6840 H   0  0  0  0  0  0  0  0  0  0  0  0
   -7.7700   13.5990   16.8190 C   0  0  0  0  0  0  0  0  0  0  0  0
   -6.8350   14.4030   16.9000 O   0  0  0  0  0  0  0  0  0  0  0  0
   -8.3060   15.6040   11.7810 O   0  0  0  0  0  0  0  0  0  0  0  0
   -7.6050   14.9210   11.7940 H   0  0  0  0  0  0  0  0  0  0  0  0
  -10.8630   16.2150   14.4760 C   0  0  0  0  0  2  0  0  0  0  0  0
  -10.7750   16.2530   15.8900 O   0  0  0  0  0  0  0  0  0  0  0  0
  -11.8470   15.4890   16.7890 P   0  0  0  0  0  0  0  0  0  0  0  0
  -12.4220   14.4190   15.9370 O   0  0  0  0  0  0  0  0  0  0  0  0
  -11.1090   14.9650   17.9680 O   0  0  0  0  0  1  0  0  0  0  0  0
  -12.9680   16.4030   17.2460 O   0  0  0  0  0  1  0  0  0  0  0  0
  1 17  1  1  0  0  0
  1  2  1  0  0  0  0
  3  4  1  6  0  0  0
  3  2  1  0  0  0  0
  3  6  1  0  0  0  0
  5 15  1  6  0  0  0
  5  4  1  0  0  0  0
  5  1  1  0  0  0  0
  6 13  1  0  0  0  0
  7  6  1  0  0  0  0
  7  8  2  0  0  0  0
  8  9  1  0  0  0  0
  9 11  1  0  0  0  0
  9 10  2  0  0  0  0
 11 12  1  0  0  0  0
 13 14  2  0  0  0  0
 13 11  1  0  0  0  0
 15 16  1  0  0  0  0
 17 18  1  0  0  0  0
 18 19  1  0  0  0  0
 19 22  1  0  0  0  0
 19 21  1  0  0  0  0
 20 19  2  0  0  0  0
M  END
$$$$
output_dock/lig-dump-rec-1.all_poses.pdbqt
 OpenBabel06202210173D

 22 23  0  0  1  0  0  0  0  0999 V2000
   -9.6330   14.6610   14.5720 C   0  0  1  0  0  3  0  0  0  0  0  0
  -10.8050   14.0510   15.0540 O   0  0  0  0  0  0  0  0  0  0  0  0
  -11.2880   14.9300   15.9770 C   0  0  2  0  0  3  0  0  0  0  0  0
  -10.8950   16.3570   15.7170 C   0  0  0  0  0  2  0  0  0  0  0  0
   -9.9580   16.1770   14.5690 C   0  0  2  0  0  3  0  0  0  0  0  0
  -11.5570   14.5610   17.3300 N   0  0  0  0  0  0  0  0  0  0  0  0
  -12.4900   13.5800   17.5070 C   0  0  0  0  0  3  0  0  0  0  0  0
  -12.7800   13.1280   18.7830 C   0  0  0  0  0  3  0  0  0  0  0  0
  -11.9880   13.5750   19.8250 C   0  0  0  0  0  0  0  0  0  0  0  0
  -12.1870   13.1770   20.9860 O   0  0  0  0  0  0  0  0  0  0  0  0
  -11.0590   14.5740   19.6160 N   0  0  0  0  0  0  0  0  0  0  0  0
  -10.6930   15.0620   20.4100 H   0  0  0  0  0  0  0  0  0  0  0  0
  -10.8020   15.0370   18.3630 C   0  0  0  0  0  0  0  0  0  0  0  0
   -9.9440   15.9100   18.1960 O   0  0  0  0  0  0  0  0  0  0  0  0
  -10.6660   16.5500   13.4190 O   0  0  0  0  0  0  0  0  0  0  0  0
  -11.6150   16.3430   13.5410 H   0  0  0  0  0  0  0  0  0  0  0  0
   -8.4440   14.3010   15.4620 C   0  0  0  0  0  2  0  0  0  0  0  0
   -8.5990   13.0170   16.0430 O   0  0  0  0  0  0  0  0  0  0  0  0
   -7.9870   12.6990   17.4800 P   0  0  0  0  0  0  0  0  0  0  0  0
   -7.3700   13.9600   17.9600 O   0  0  0  0  0  1  0  0  0  0  0  0
   -9.1210   12.2430   18.3270 O   0  0  0  0  0  1  0  0  0  0  0  0
   -6.9190   11.6240   17.4230 O   0  0  0  0  0  0  0  0  0  0  0  0
  1  2  1  0  0  0  0
  1 17  1  1  0  0  0
  2  3  1  0  0  0  0
  3  4  1  1  0  0  0
  3  6  1  0  0  0  0
  5 15  1  6  0  0  0
  5  1  1  0  0  0  0
  5  4  1  0  0  0  0
  6  7  1  0  0  0  0
  6 13  1  0  0  0  0
  7  8  2  0  0  0  0
  8  9  1  0  0  0  0
  9 10  2  0  0  0  0
 11  9  1  0  0  0  0
 11 12  1  0  0  0  0
 13 11  1  0  0  0  0
 14 13  2  0  0  0  0
 15 16  1  0  0  0  0
 17 18  1  0  0  0  0
 18 19  1  0  0  0  0
 19 20  1  0  0  0  0
 19 21  1  0  0  0  0
 22 19  2  0  0  0  0
M  END
$$$$
output_dock/lig-dump-rec-1.all_poses.pdbqt
 OpenBabel06202210173D

 22 23  0  0  1  0  0  0  0  0999 V2000
  -10.8420   15.1910   17.4080 C   0  0  1  0  0  3  0  0  0  0  0  0
   -9.5210   15.6610   17.2970 O   0  0  0  0  0  0  0  0  0  0  0  0
   -9.3070   15.7510   15.9540 C   0  0  2  0  0  3  0  0  0  0  0  0
  -10.5580   15.9810   15.1560 C   0  0  0  0  0  2  0  0  0  0  0  0
  -11.5910   15.8560   16.2260 C   0  0  2  0  0  3  0  0  0  0  0  0
   -8.2230   15.0900   15.2980 N   0  0  0  0  0  0  0  0  0  0  0  0
   -8.1000   15.3310   13.9590 C   0  0  0  0  0  3  0  0  0  0  0  0
   -7.0520   14.7680   13.2530 C   0  0  0  0  0  3  0  0  0  0  0  0
   -6.0660   14.1110   13.9670 C   0  0  0  0  0  0  0  0  0  0  0  0
   -5.0880   13.6140   13.3830 O   0  0  0  0  0  0  0  0  0  0  0  0
   -6.2240   13.8770   15.3190 N   0  0  0  0  0  0  0  0  0  0  0  0
   -5.6450   13.1850   15.7550 H   0  0  0  0  0  0  0  0  0  0  0  0
   -7.2740   14.4060   16.0010 C   0  0  0  0  0  0  0  0  0  0  0  0
   -7.3790   14.2080   17.2160 O   0  0  0  0  0  0  0  0  0  0  0  0
  -11.9940   17.1610   16.5400 O   0  0  0  0  0  0  0  0  0  0  0  0
  -12.8840   17.3250   16.1660 H   0  0  0  0  0  0  0  0  0  0  0  0
  -10.8660   13.6640   17.3540 C   0  0  0  0  0  2  0  0  0  0  0  0
  -11.2620   13.1050   18.5950 O   0  0  0  0  0  0  0  0  0  0  0  0
  -10.1740   12.5330   19.6100 P   0  0  0  0  0  0  0  0  0  0  0  0
  -10.7910   12.5850   20.9580 O   0  0  0  0  0  1  0  0  0  0  0  0
   -9.8660   11.1500   19.1590 O   0  0  0  0  0  0  0  0  0  0  0  0
   -8.9060   13.3670   19.6220 O   0  0  0  0  0  1  0  0  0  0  0  0
  1 17  1  6  0  0  0
  2  1  1  0  0  0  0
  3  4  1  6  0  0  0
  3  2  1  0  0  0  0
  4  5  1  0  0  0  0
  5 15  1  1  0  0  0
  5  1  1  0  0  0  0
  6  3  1  0  0  0  0
  6 13  1  0  0  0  0
  7  6  1  0  0  0  0
  8  7  2  0  0  0  0
  8  9  1  0  0  0  0
  9 11  1  0  0  0  0
 10  9  2  0  0  0  0
 11 12  1  0  0  0  0
 11 13  1  0  0  0  0
 13 14  2  0  0  0  0
 16 15  1  0  0  0  0
 17 18  1  0  0  0  0
 18 19  1  0  0  0  0
 19 22  1  0  0  0  0
 19 20  1  0  0  0  0
 21 19  2  0  0  0  0
M  END
$$$$
output_dock/lig-dump-rec-1.all_poses.pdbqt
 OpenBabel06202210173D

 22 23  0  0  1  0  0  0  0  0999 V2000
   -8.4620   13.1930   18.4570 C   0  0  1  0  0  3  0  0  0  0  0  0
   -9.1010   14.4450   18.5050 O   0  0  0  0  0  0  0  0  0  0  0  0
  -10.2830   14.2460   17.8560 C   0  0  2  0  0  3  0  0  0  0  0  0
  -10.7770   12.8290   17.9210 C   0  0  0  0  0  2  0  0  0  0  0  0
   -9.6150   12.1650   18.5820 C   0  0  2  0  0  3  0  0  0  0  0  0
  -10.6930   15.0320   16.7360 N   0  0  0  0  0  0  0  0  0  0  0  0
   -9.7050   15.7320   16.1050 C   0  0  0  0  0  3  0  0  0  0  0  0
  -10.0040   16.4840   14.9830 C   0  0  0  0  0  3  0  0  0  0  0  0
  -11.2710   16.3670   14.4410 C   0  0  0  0  0  0  0  0  0  0  0  0
  -11.5810   16.9980   13.4160 O   0  0  0  0  0  0  0  0  0  0  0  0
  -12.2510   15.6580   15.1080 N   0  0  0  0  0  0  0  0  0  0  0  0
  -13.2070   15.8030   14.8470 H   0  0  0  0  0  0  0  0  0  0  0  0
  -11.9570   14.9470   16.2290 C   0  0  0  0  0  0  0  0  0  0  0  0
  -12.8430   14.2960   16.7910 O   0  0  0  0  0  0  0  0  0  0  0  0
   -9.9840   11.9640   19.9190 O   0  0  0  0  0  0  0  0  0  0  0  0
   -9.1840   11.9880   20.4840 H   0  0  0  0  0  0  0  0  0  0  0  0
   -7.6670   13.0530   17.1600 C   0  0  0  0  0  2  0  0  0  0  0  0
   -6.7940   14.1520   16.9630 O   0  0  0  0  0  0  0  0  0  0  0  0
   -6.1850   14.4560   15.5210 P   0  0  0  0  0  0  0  0  0  0  0  0
   -7.2950   14.2780   14.5530 O   0  0  0  0  0  0  0  0  0  0  0  0
   -5.6670   15.8480   15.5700 O   0  0  0  0  0  1  0  0  0  0  0  0
   -5.0650   13.4990   15.1590 O   0  0  0  0  0  1  0  0  0  0  0  0
  1 17  1  6  0  0  0
  1  2  1  0  0  0  0
  1  5  1  0  0  0  0
  3  6  1  6  0  0  0
  3  4  1  0  0  0  0
  3  2  1  0  0  0  0
  4  5  1  0  0  0  0
  5 15  1  1  0  0  0
  7  6  1  0  0  0  0
  8  7  2  0  0  0  0
  9  8  1  0  0  0  0
  9 11  1  0  0  0  0
 10  9  2  0  0  0  0
 11 13  1  0  0  0  0
 12 11  1  0  0  0  0
 13  6  1  0  0  0  0
 13 14  2  0  0  0  0
 15 16  1  0  0  0  0
 18 17  1  0  0  0  0
 19 21  1  0  0  0  0
 19 18  1  0  0  0  0
 20 19  2  0  0  0  0
 22 19  1  0  0  0  0
M  END
$$$$
output_dock/lig-dump-rec-1.all_poses.pdbqt
 OpenBabel06202210173D

 22 23  0  0  1  0  0  0  0  0999 V2000
   -8.3130   14.2950   16.2850 C   0  0  1  0  0  3  0  0  0  0  0  0
   -8.4000   14.5170   17.6700 O   0  0  0  0  0  0  0  0  0  0  0  0
   -8.9030   13.3520   18.1680 C   0  0  2  0  0  3  0  0  0  0  0  0
   -8.5800   12.1470   17.3310 C   0  0  0  0  0  2  0  0  0  0  0  0
   -7.9310   12.7980   16.1540 C   0  0  2  0  0  3  0  0  0  0  0  0
  -10.0890   13.2980   18.9630 N   0  0  0  0  0  0  0  0  0  0  0  0
  -11.2690   13.3270   18.2770 C   0  0  0  0  0  3  0  0  0  0  0  0
  -12.4660   13.2330   18.9640 C   0  0  0  0  0  3  0  0  0  0  0  0
  -12.4180   12.9460   20.3170 C   0  0  0  0  0  0  0  0  0  0  0  0
  -13.4660   12.8220   20.9740 O   0  0  0  0  0  0  0  0  0  0  0  0
  -11.2090   12.9330   20.9830 N   0  0  0  0  0  0  0  0  0  0  0  0
  -11.2140   12.9890   21.9830 H   0  0  0  0  0  0  0  0  0  0  0  0
  -10.0370   13.0580   20.3060 C   0  0  0  0  0  0  0  0  0  0  0  0
   -8.9660   13.0130   20.9200 O   0  0  0  0  0  0  0  0  0  0  0  0
   -6.5520   12.6040   16.3060 O   0  0  0  0  0  0  0  0  0  0  0  0
   -6.3260   11.6820   16.0640 H   0  0  0  0  0  0  0  0  0  0  0  0
   -9.6400   14.6390   15.6090 C   0  0  0  0  0  2  0  0  0  0  0  0
   -9.4490   15.4740   14.4800 O   0  0  0  0  0  0  0  0  0  0  0  0
   -8.9850   14.8570   13.0860 P   0  0  0  0  0  0  0  0  0  0  0  0
   -9.4330   13.4430   13.0830 O   0  0  0  0  0  1  0  0  0  0  0  0
   -9.6300   15.6790   12.0280 O   0  0  0  0  0  0  0  0  0  0  0  0
   -7.4770   14.8910   12.9170 O   0  0  0  0  0  1  0  0  0  0  0  0
  1 17  1  6  0  0  0
  1  2  1  0  0  0  0
  2  3  1  0  0  0  0
  3  4  1  6  0  0  0
  3  6  1  0  0  0  0
  5  1  1  0  0  0  0
  5 15  1  1  0  0  0
  5  4  1  0  0  0  0
  6 13  1  0  0  0  0
  7  6  1  0  0  0  0
  7  8  2  0  0  0  0
  8  9  1  0  0  0  0
  9 10  2  0  0  0  0
  9 11  1  0  0  0  0
 11 12  1  0  0  0  0
 13 14  2  0  0  0  0
 13 11  1  0  0  0  0
 16 15  1  0  0  0  0
 18 17  1  0  0  0  0
 19 18  1  0  0  0  0
 20 19  1  0  0  0  0
 21 19  2  0  0  0  0
 22 19  1  0  0  0  0
M  END
$$$$
output_dock/lig-dump-rec-1.all_poses.pdbqt
 OpenBabel06202210173D

 22 23  0  0  1  0  0  0  0  0999 V2000
    8.2410    8.2490   16.4980 C   0  0  1  0  0  3  0  0  0  0  0  0
    7.9420    9.4880   17.0920 O   0  0  0  0  0  0  0  0  0  0  0  0
    8.5600   10.4030   16.2940 C   0  0  2  0  0  3  0  0  0  0  0  0
    8.7260    9.9510   14.8710 C   0  0  0  0  0  2  0  0  0  0  0  0
    8.2480    8.5400   14.9760 C   0  0  2  0  0  3  0  0  0  0  0  0
    9.5020   11.3540   16.7930 N   0  0  0  0  0  0  0  0  0  0  0  0
   10.6290   11.5280   16.0410 C   0  0  0  0  0  3  0  0  0  0  0  0
   11.5750   12.4630   16.4260 C   0  0  0  0  0  3  0  0  0  0  0  0
   11.2620   13.3080   17.4750 C   0  0  0  0  0  0  0  0  0  0  0  0
   12.0640   14.1850   17.8410 O   0  0  0  0  0  0  0  0  0  0  0  0
   10.1190   13.1010   18.2210 N   0  0  0  0  0  0  0  0  0  0  0  0
   10.0460   13.5410   19.1170 H   0  0  0  0  0  0  0  0  0  0  0  0
    9.2090   12.1580   17.8560 C   0  0  0  0  0  0  0  0  0  0  0  0
    8.1790   12.0110   18.5210 O   0  0  0  0  0  0  0  0  0  0  0  0
    6.9520    8.5220   14.4420 O   0  0  0  0  0  0  0  0  0  0  0  0
    6.7610    7.6290   14.0870 H   0  0  0  0  0  0  0  0  0  0  0  0
    9.5780    7.7220   17.0180 C   0  0  0  0  0  2  0  0  0  0  0  0
   10.4390    7.3490   15.9550 O   0  0  0  0  0  0  0  0  0  0  0  0
   11.9960    7.6830   16.0190 P   0  0  0  0  0  0  0  0  0  0  0  0
   12.3870    8.1160   14.6550 O   0  0  0  0  0  0  0  0  0  0  0  0
   12.1550    8.7510   17.0410 O   0  0  0  0  0  1  0  0  0  0  0  0
   12.8270    6.4730   16.4030 O   0  0  0  0  0  1  0  0  0  0  0  0
  1 17  1  1  0  0  0
  1  2  1  0  0  0  0
  3  4  1  6  0  0  0
  3  6  1  0  0  0  0
  3  2  1  0  0  0  0
  4  5  1  0  0  0  0
  5 15  1  1  0  0  0
  5  1  1  0  0  0  0
  6 13  1  0  0  0  0
  7  8  2  0  0  0  0
  7  6  1  0  0  0  0
  8  9  1  0  0  0  0
  9 10  2  0  0  0  0
  9 11  1  0  0  0  0
 11 12  1  0  0  0  0
 13 11  1  0  0  0  0
 13 14  2  0  0  0  0
 16 15  1  0  0  0  0
 18 19  1  0  0  0  0
 18 17  1  0  0  0  0
 19 22  1  0  0  0  0
 19 21  1  0  0  0  0
 20 19  2  0  0  0  0
M  END
$$$$
output_dock/lig-dump-rec-1.all_poses.pdbqt
 OpenBabel06202210173D

 22 23  0  0  1  0  0  0  0  0999 V2000
    7.8820   12.4520   16.0680 C   0  0  1  0  0  3  0  0  0  0  0  0
    7.6910   11.2920   15.2970 O   0  0  0  0  0  0  0  0  0  0  0  0
    8.3360   10.3130   15.9920 C   0  0  2  0  0  3  0  0  0  0  0  0
    8.4140   10.5730   17.4690 C   0  0  0  0  0  2  0  0  0  0  0  0
    7.8470   11.9530   17.5350 C   0  0  2  0  0  3  0  0  0  0  0  0
    9.3590    9.5000   15.4150 N   0  0  0  0  0  0  0  0  0  0  0  0
   10.5740    9.5370   16.0380 C   0  0  0  0  0  3  0  0  0  0  0  0
   11.6090    8.7460   15.5730 C   0  0  0  0  0  3  0  0  0  0  0  0
   11.3250    7.8170   14.5880 C   0  0  0  0  0  0  0  0  0  0  0  0
   12.2130    7.0610   14.1570 O   0  0  0  0  0  0  0  0  0  0  0  0
   10.0900    7.8110   13.9720 N   0  0  0  0  0  0  0  0  0  0  0  0
    9.9920    7.3250   13.1010 H   0  0  0  0  0  0  0  0  0  0  0  0
    9.0860    8.6150   14.4120 C   0  0  0  0  0  0  0  0  0  0  0  0
    7.9790    8.5700   13.8650 O   0  0  0  0  0  0  0  0  0  0  0  0
    6.5330   11.8180   18.0020 O   0  0  0  0  0  0  0  0  0  0  0  0
    6.4950   12.0840   18.9440 H   0  0  0  0  0  0  0  0  0  0  0  0
    9.2010   13.1260   15.6910 C   0  0  0  0  0  2  0  0  0  0  0  0
    9.8230   13.7200   16.8170 O   0  0  0  0  0  0  0  0  0  0  0  0
   11.4120   13.7490   16.9440 P   0  0  0  0  0  0  0  0  0  0  0  0
   11.8260   12.3800   17.3370 O   0  0  0  0  0  1  0  0  0  0  0  0
   11.9310   14.1580   15.6120 O   0  0  0  0  0  0  0  0  0  0  0  0
   11.8840   14.7250   18.0050 O   0  0  0  0  0  1  0  0  0  0  0  0
  1 17  1  6  0  0  0
  1  5  1  0  0  0  0
  2  3  1  0  0  0  0
  2  1  1  0  0  0  0
  3  6  1  6  0  0  0
  3  4  1  0  0  0  0
  4  5  1  0  0  0  0
  5 15  1  6  0  0  0
  6  7  1  0  0  0  0
  8  7  2  0  0  0  0
  9  8  1  0  0  0  0
 10  9  2  0  0  0  0
 11 13  1  0  0  0  0
 11  9  1  0  0  0  0
 12 11  1  0  0  0  0
 13  6  1  0  0  0  0
 14 13  2  0  0  0  0
 15 16  1  0  0  0  0
 17 18  1  0  0  0  0
 18 19  1  0  0  0  0
 19 20  1  0  0  0  0
 19 22  1  0  0  0  0
 21 19  2  0  0  0  0
M  END
$$$$
output_dock/lig-dump-rec-1.all_poses.pdbqt
 OpenBabel06202210173D

 22 23  0  0  1  0  0  0  0  0999 V2000
   -8.5040   14.5290   15.2180 C   0  0  1  0  0  3  0  0  0  0  0  0
   -8.7300   13.9770   13.9440 O   0  0  0  0  0  0  0  0  0  0  0  0
   -7.5990   14.2720   13.2430 C   0  0  2  0  0  3  0  0  0  0  0  0
   -6.3770   14.4250   14.1020 C   0  0  0  0  0  2  0  0  0  0  0  0
   -6.9860   14.3310   15.4620 C   0  0  2  0  0  3  0  0  0  0  0  0
   -7.6210   14.9810   12.0030 N   0  0  0  0  0  0  0  0  0  0  0  0
   -6.4920   14.8840   11.2400 C   0  0  0  0  0  3  0  0  0  0  0  0
   -6.4430   15.5020   10.0030 C   0  0  0  0  0  3  0  0  0  0  0  0
   -7.6080   16.0620    9.5100 C   0  0  0  0  0  0  0  0  0  0  0  0
   -7.6250   16.6030    8.3910 O   0  0  0  0  0  0  0  0  0  0  0  0
   -8.7300   16.1520   10.3090 N   0  0  0  0  0  0  0  0  0  0  0  0
   -9.4600   16.7830   10.0400 H   0  0  0  0  0  0  0  0  0  0  0  0
   -8.7610   15.5710   11.5380 C   0  0  0  0  0  0  0  0  0  0  0  0
   -9.7860   15.6390   12.2230 O   0  0  0  0  0  0  0  0  0  0  0  0
   -6.7040   13.0420   15.9330 O   0  0  0  0  0  0  0  0  0  0  0  0
   -7.0130   12.3820   15.2790 H   0  0  0  0  0  0  0  0  0  0  0  0
   -8.9330   15.9950   15.2430 C   0  0  0  0  0  2  0  0  0  0  0  0
  -10.0210   16.2050   16.1260 O   0  0  0  0  0  0  0  0  0  0  0  0
  -11.5220   16.0350   15.6160 P   0  0  0  0  0  0  0  0  0  0  0  0
  -12.3890   16.6410   16.6570 O   0  0  0  0  0  1  0  0  0  0  0  0
  -11.6020   16.7360   14.3070 O   0  0  0  0  0  0  0  0  0  0  0  0
  -11.9090   14.5780   15.4460 O   0  0  0  0  0  1  0  0  0  0  0  0
  1 17  1  6  0  0  0
  1  5  1  0  0  0  0
  2  1  1  0  0  0  0
  3  6  1  1  0  0  0
  3  2  1  0  0  0  0
  3  4  1  0  0  0  0
  4  5  1  0  0  0  0
  5 15  1  6  0  0  0
  7  6  1  0  0  0  0
  8  7  2  0  0  0  0
  9  8  1  0  0  0  0
  9 11  1  0  0  0  0
 10  9  2  0  0  0  0
 11 13  1  0  0  0  0
 12 11  1  0  0  0  0
 13  6  1  0  0  0  0
 13 14  2  0  0  0  0
 16 15  1  0  0  0  0
 17 18  1  0  0  0  0
 19 18  1  0  0  0  0
 19 20  1  0  0  0  0
 21 19  2  0  0  0  0
 22 19  1  0  0  0  0
M  END
$$$$
output_dock/lig-dump-rec-1.all_poses.pdbqt
 OpenBabel06202210173D

 22 23  0  0  1  0  0  0  0  0999 V2000
   -9.2190   14.0400   15.1560 C   0  0  1  0  0  3  0  0  0  0  0  0
  -10.1300   13.3480   15.9740 O   0  0  0  0  0  0  0  0  0  0  0  0
  -10.3480   14.1890   17.0240 C   0  0  2  0  0  3  0  0  0  0  0  0
  -10.1560   15.6400   16.6860 C   0  0  0  0  0  2  0  0  0  0  0  0
   -9.6280   15.5290   15.2940 C   0  0  2  0  0  3  0  0  0  0  0  0
  -10.1420   13.8010   18.3820 N   0  0  0  0  0  0  0  0  0  0  0  0
  -11.2530   13.3840   19.0590 C   0  0  0  0  0  3  0  0  0  0  0  0
  -11.1380   12.9460   20.3670 C   0  0  0  0  0  3  0  0  0  0  0  0
   -9.8670   12.7900   20.8900 C   0  0  0  0  0  0  0  0  0  0  0  0
   -9.7080   12.3710   22.0490 O   0  0  0  0  0  0  0  0  0  0  0  0
   -8.7640   13.2280   20.1840 N   0  0  0  0  0  0  0  0  0  0  0  0
   -7.9000   13.3520   20.6750 H   0  0  0  0  0  0  0  0  0  0  0  0
   -8.8880   13.6890   18.9100 C   0  0  0  0  0  0  0  0  0  0  0  0
   -7.8840   14.0470   18.2880 O   0  0  0  0  0  0  0  0  0  0  0  0
  -10.6910   15.8520   14.4400 O   0  0  0  0  0  0  0  0  0  0  0  0
  -11.1460   16.6510   14.7770 H   0  0  0  0  0  0  0  0  0  0  0  0
   -7.7860   13.7640   15.6090 C   0  0  0  0  0  2  0  0  0  0  0  0
   -6.9280   14.8540   15.3180 O   0  0  0  0  0  0  0  0  0  0  0  0
   -5.9790   14.8190   14.0380 P   0  0  0  0  0  0  0  0  0  0  0  0
   -5.1140   16.0210   14.1260 O   0  0  0  0  0  1  0  0  0  0  0  0
   -5.2200   13.5430   14.1130 O   0  0  0  0  0  1  0  0  0  0  0  0
   -6.7640   14.8780   12.7410 O   0  0  0  0  0  0  0  0  0  0  0  0
  1  5  1  0  0  0  0
  1 17  1  1  0  0  0
  1  2  1  0  0  0  0
  2  3  1  0  0  0  0
  3  4  1  6  0  0  0
  3  6  1  0  0  0  0
  5 15  1  6  0  0  0
  5  4  1  0  0  0  0
  6 13  1  0  0  0  0
  6  7  1  0  0  0  0
  7  8  2  0  0  0  0
  8  9  1  0  0  0  0
  9 10  2  0  0  0  0
 11 12  1  0  0  0  0
 11  9  1  0  0  0  0
 13 11  1  0  0  0  0
 14 13  2  0  0  0  0
 15 16  1  0  0  0  0
 18 17  1  0  0  0  0
 19 21  1  0  0  0  0
 19 20  1  0  0  0  0
 19 18  1  0  0  0  0
 22 19  2  0  0  0  0
M  END
$$$$
output_dock/lig-dump-rec-1.all_poses.pdbqt
 OpenBabel06202210173D

 22 23  0  0  1  0  0  0  0  0999 V2000
   -8.7560   14.0520   15.6790 C   0  0  1  0  0  3  0  0  0  0  0  0
   -8.9320   13.5290   14.3860 O   0  0  0  0  0  0  0  0  0  0  0  0
   -8.0190   14.1960   13.6240 C   0  0  2  0  0  3  0  0  0  0  0  0
   -6.8200   14.6690   14.3950 C   0  0  0  0  0  2  0  0  0  0  0  0
   -7.2320   14.3180   15.7860 C   0  0  2  0  0  3  0  0  0  0  0  0
   -8.3780   14.9310   12.4540 N   0  0  0  0  0  0  0  0  0  0  0  0
   -9.5590   15.6140   12.5170 C   0  0  0  0  0  3  0  0  0  0  0  0
   -9.9620   16.3900   11.4440 C   0  0  0  0  0  3  0  0  0  0  0  0
   -9.0690   16.5760   10.4050 C   0  0  0  0  0  0  0  0  0  0  0  0
   -9.3700   17.2890    9.4320 O   0  0  0  0  0  0  0  0  0  0  0  0
   -7.8860   15.8640   10.3660 N   0  0  0  0  0  0  0  0  0  0  0  0
   -7.3890   15.8090    9.4980 H   0  0  0  0  0  0  0  0  0  0  0  0
   -7.5110   15.0770   11.4100 C   0  0  0  0  0  0  0  0  0  0  0  0
   -6.4350   14.4730   11.3660 O   0  0  0  0  0  0  0  0  0  0  0  0
   -6.5290   13.1540   16.1240 O   0  0  0  0  0  0  0  0  0  0  0  0
   -6.8980   12.7810   16.9510 H   0  0  0  0  0  0  0  0  0  0  0  0
   -9.6010   15.3120   15.8600 C   0  0  0  0  0  2  0  0  0  0  0  0
  -10.4620   15.2060   16.9810 O   0  0  0  0  0  0  0  0  0  0  0  0
  -11.9610   14.6930   16.8050 P   0  0  0  0  0  0  0  0  0  0  0  0
  -12.0560   13.4130   17.5500 O   0  0  0  0  0  1  0  0  0  0  0  0
  -12.8370   15.7600   17.3580 O   0  0  0  0  0  1  0  0  0  0  0  0
  -12.3130   14.4370   15.3520 O   0  0  0  0  0  0  0  0  0  0  0  0
  1  5  1  0  0  0  0
  1 17  1  6  0  0  0
  2  1  1  0  0  0  0
  3  6  1  1  0  0  0
  3  2  1  0  0  0  0
  3  4  1  0  0  0  0
  4  5  1  0  0  0  0
  5 15  1  6  0  0  0
  6  7  1  0  0  0  0
  8  7  2  0  0  0  0
  9  8  1  0  0  0  0
 10  9  2  0  0  0  0
 11  9  1  0  0  0  0
 11 13  1  0  0  0  0
 12 11  1  0  0  0  0
 13  6  1  0  0  0  0
 14 13  2  0  0  0  0
 15 16  1  0  0  0  0
 17 18  1  0  0  0  0
 19 18  1  0  0  0  0
 19 21  1  0  0  0  0
 19 20  1  0  0  0  0
 22 19  2  0  0  0  0
M  END
$$$$
output_dock/lig-dump-rec-1.all_poses.pdbqt
 OpenBabel06202210173D

 22 23  0  0  1  0  0  0  0  0999 V2000
  -10.0380   13.7400   18.4700 C   0  0  1  0  0  3  0  0  0  0  0  0
  -10.1220   13.0520   17.2470 O   0  0  0  0  0  0  0  0  0  0  0  0
   -8.8700   13.1510   16.7160 C   0  0  2  0  0  3  0  0  0  0  0  0
   -7.7880   13.3020   17.7470 C   0  0  0  0  0  2  0  0  0  0  0  0
   -8.6080   13.4400   18.9860 C   0  0  2  0  0  3  0  0  0  0  0  0
   -8.6210   13.6930   15.4190 N   0  0  0  0  0  0  0  0  0  0  0  0
   -7.4460   14.3730   15.2720 C   0  0  0  0  0  3  0  0  0  0  0  0
   -7.1020   14.8930   14.0370 C   0  0  0  0  0  3  0  0  0  0  0  0
   -7.8890   14.5600   12.9500 C   0  0  0  0  0  0  0  0  0  0  0  0
   -7.6060   14.9760   11.8130 O   0  0  0  0  0  0  0  0  0  0  0  0
   -9.0760   13.8780   13.1320 N   0  0  0  0  0  0  0  0  0  0  0  0
   -9.7480   13.8800   12.3890 H   0  0  0  0  0  0  0  0  0  0  0  0
   -9.4240   13.3980   14.3550 C   0  0  0  0  0  0  0  0  0  0  0  0
  -10.4760   12.7640   14.4890 O   0  0  0  0  0  0  0  0  0  0  0  0
   -8.5460   12.2020   19.6410 O   0  0  0  0  0  0  0  0  0  0  0  0
   -7.6530   12.0820   20.0240 H   0  0  0  0  0  0  0  0  0  0  0  0
  -10.3020   15.2310   18.2570 C   0  0  0  0  0  2  0  0  0  0  0  0
  -10.6200   15.5150   16.9060 O   0  0  0  0  0  0  0  0  0  0  0  0
  -12.1110   15.8960   16.4870 P   0  0  0  0  0  0  0  0  0  0  0  0
  -12.3380   17.2830   16.9610 O   0  0  0  0  0  1  0  0  0  0  0  0
  -12.1780   15.7630   15.0080 O   0  0  0  0  0  0  0  0  0  0  0  0
  -13.1380   14.9860   17.1350 O   0  0  0  0  0  1  0  0  0  0  0  0
  1 17  1  6  0  0  0
  1  5  1  0  0  0  0
  2  1  1  0  0  0  0
  3  6  1  6  0  0  0
  3  2  1  0  0  0  0
  3  4  1  0  0  0  0
  4  5  1  0  0  0  0
  5 15  1  6  0  0  0
  7  6  1  0  0  0  0
  8  7  2  0  0  0  0
  9 11  1  0  0  0  0
  9  8  1  0  0  0  0
 10  9  2  0  0  0  0
 11 13  1  0  0  0  0
 12 11  1  0  0  0  0
 13 14  2  0  0  0  0
 13  6  1  0  0  0  0
 15 16  1  0  0  0  0
 18 17  1  0  0  0  0
 19 18  1  0  0  0  0
 19 20  1  0  0  0  0
 19 22  1  0  0  0  0
 21 19  2  0  0  0  0
M  END
$$$$
output_dock/lig-dump-rec-1.all_poses.pdbqt
 OpenBabel06202210173D

 22 23  0  0  1  0  0  0  0  0999 V2000
   -9.8030   14.9680   14.7080 C   0  0  1  0  0  3  0  0  0  0  0  0
  -11.0030   15.2760   15.3730 O   0  0  0  0  0  0  0  0  0  0  0  0
  -10.6370   15.4210   16.6780 C   0  0  2  0  0  3  0  0  0  0  0  0
   -9.2110   15.8540   16.8620 C   0  0  0  0  0  2  0  0  0  0  0  0
   -8.7230   15.7930   15.4520 C   0  0  2  0  0  3  0  0  0  0  0  0
  -11.2360   14.6720   17.7370 N   0  0  0  0  0  0  0  0  0  0  0  0
  -10.5590   14.6690   18.9230 C   0  0  0  0  0  3  0  0  0  0  0  0
  -11.0890   14.0070   20.0160 C   0  0  0  0  0  3  0  0  0  0  0  0
  -12.3750   13.5070   19.9110 C   0  0  0  0  0  0  0  0  0  0  0  0
  -12.9090   12.9310   20.8740 O   0  0  0  0  0  0  0  0  0  0  0  0
  -13.0300   13.5180   18.6960 N   0  0  0  0  0  0  0  0  0  0  0  0
  -13.8300   12.9270   18.5780 H   0  0  0  0  0  0  0  0  0  0  0  0
  -12.4890   14.1430   17.6170 C   0  0  0  0  0  0  0  0  0  0  0  0
  -13.1060   14.1660   16.5470 O   0  0  0  0  0  0  0  0  0  0  0  0
   -8.6780   17.1170   14.9930 O   0  0  0  0  0  0  0  0  0  0  0  0
   -9.0060   17.7150   15.6950 H   0  0  0  0  0  0  0  0  0  0  0  0
   -9.5470   13.4620   14.7490 C   0  0  0  0  0  2  0  0  0  0  0  0
  -10.2080   12.8510   15.8430 O   0  0  0  0  0  0  0  0  0  0  0  0
   -9.4820   11.7200   16.7000 P   0  0  0  0  0  0  0  0  0  0  0  0
   -9.4720   10.4990   15.8570 O   0  0  0  0  0  0  0  0  0  0  0  0
   -8.1210   12.2330   17.0050 O   0  0  0  0  0  1  0  0  0  0  0  0
  -10.2200   11.4150   17.9900 O   0  0  0  0  0  1  0  0  0  0  0  0
  1 17  1  1  0  0  0
  1  2  1  0  0  0  0
  1  5  1  0  0  0  0
  2  3  1  0  0  0  0
  3  4  1  6  0  0  0
  3  6  1  0  0  0  0
  5 15  1  6  0  0  0
  5  4  1  0  0  0  0
  6  7  1  0  0  0  0
  7  8  2  0  0  0  0
  9  8  1  0  0  0  0
  9 10  2  0  0  0  0
 11  9  1  0  0  0  0
 12 11  1  0  0  0  0
 13  6  1  0  0  0  0
 13 11  1  0  0  0  0
 14 13  2  0  0  0  0
 15 16  1  0  0  0  0
 17 18  1  0  0  0  0
 18 19  1  0  0  0  0
 19 21  1  0  0  0  0
 19 22  1  0  0  0  0
 20 19  2  0  0  0  0
M  END
$$$$
output_dock/lig-dump-rec-1.all_poses.pdbqt
 OpenBabel06202210173D

 22 23  0  0  1  0  0  0  0  0999 V2000
  -10.3360   13.2350   15.5430 C   0  0  1  0  0  3  0  0  0  0  0  0
   -9.3390   13.5780   14.6130 O   0  0  0  0  0  0  0  0  0  0  0  0
   -8.2100   13.7160   15.3650 C   0  0  2  0  0  3  0  0  0  0  0  0
   -8.2160   12.8930   16.6210 C   0  0  0  0  0  2  0  0  0  0  0  0
   -9.6070   12.3530   16.5880 C   0  0  2  0  0  3  0  0  0  0  0  0
   -7.4230   14.9080   15.3660 N   0  0  0  0  0  0  0  0  0  0  0  0
   -8.1150   16.0800   15.4810 C   0  0  0  0  0  3  0  0  0  0  0  0
   -7.4290   17.2810   15.5360 C   0  0  0  0  0  3  0  0  0  0  0  0
   -6.0500   17.2370   15.6390 C   0  0  0  0  0  0  0  0  0  0  0  0
   -5.3890   18.2870   15.7220 O   0  0  0  0  0  0  0  0  0  0  0  0
   -5.3800   16.0370   15.5110 N   0  0  0  0  0  0  0  0  0  0  0  0
   -4.3960   16.0570   15.3230 H   0  0  0  0  0  0  0  0  0  0  0  0
   -6.0600   14.8630   15.4240 C   0  0  0  0  0  0  0  0  0  0  0  0
   -5.4380   13.7990   15.3400 O   0  0  0  0  0  0  0  0  0  0  0  0
   -9.5040   11.0230   16.1580 O   0  0  0  0  0  0  0  0  0  0  0  0
  -10.2600   10.5090   16.5090 H   0  0  0  0  0  0  0  0  0  0  0  0
  -10.9540   14.4970   16.1440 C   0  0  0  0  0  2  0  0  0  0  0  0
  -11.4180   14.2710   17.4640 O   0  0  0  0  0  0  0  0  0  0  0  0
  -10.8690   15.1470   18.6770 P   0  0  0  0  0  0  0  0  0  0  0  0
  -12.0610   15.6530   19.4020 O   0  0  0  0  0  1  0  0  0  0  0  0
  -10.0230   14.2420   19.4990 O   0  0  0  0  0  1  0  0  0  0  0  0
  -10.0480   16.3320   18.2030 O   0  0  0  0  0  0  0  0  0  0  0  0
  1 17  1  1  0  0  0
  1  5  1  0  0  0  0
  2  3  1  0  0  0  0
  2  1  1  0  0  0  0
  3  6  1  1  0  0  0
  3  4  1  0  0  0  0
  5 15  1  6  0  0  0
  5  4  1  0  0  0  0
  6 13  1  0  0  0  0
  6  7  1  0  0  0  0
  7  8  2  0  0  0  0
  8  9  1  0  0  0  0
  9 10  2  0  0  0  0
 11  9  1  0  0  0  0
 12 11  1  0  0  0  0
 13 11  1  0  0  0  0
 14 13  2  0  0  0  0
 15 16  1  0  0  0  0
 17 18  1  0  0  0  0
 18 19  1  0  0  0  0
 19 20  1  0  0  0  0
 19 21  1  0  0  0  0
 22 19  2  0  0  0  0
M  END
$$$$
output_dock/lig-dump-rec-1.all_poses.pdbqt
 OpenBabel06202210173D

 22 23  0  0  1  0  0  0  0  0999 V2000
  -11.6690   15.6150   18.2960 C   0  0  1  0  0  3  0  0  0  0  0  0
  -11.3560   16.2680   17.0910 O   0  0  0  0  0  0  0  0  0  0  0  0
  -11.3840   15.2790   16.1530 C   0  0  2  0  0  3  0  0  0  0  0  0
  -12.2940   14.1380   16.5060 C   0  0  0  0  0  2  0  0  0  0  0  0
  -12.6930   14.5240   17.8910 C   0  0  2  0  0  3  0  0  0  0  0  0
  -10.2770   14.9950   15.2970 N   0  0  0  0  0  0  0  0  0  0  0  0
   -9.9530   15.9690   14.3960 C   0  0  0  0  0  3  0  0  0  0  0  0
   -8.8660   15.7970   13.5570 C   0  0  0  0  0  3  0  0  0  0  0  0
   -8.0430   14.7070   13.7770 C   0  0  0  0  0  0  0  0  0  0  0  0
   -7.0370   14.5230   13.0710 O   0  0  0  0  0  0  0  0  0  0  0  0
   -8.4020   13.7350   14.6890 N   0  0  0  0  0  0  0  0  0  0  0  0
   -7.9460   12.8440   14.6430 H   0  0  0  0  0  0  0  0  0  0  0  0
   -9.4910   13.8950   15.4880 C   0  0  0  0  0  0  0  0  0  0  0  0
   -9.7760   13.0260   16.3170 O   0  0  0  0  0  0  0  0  0  0  0  0
  -13.9900   15.0450   17.7980 O   0  0  0  0  0  0  0  0  0  0  0  0
  -13.9960   15.7880   17.1610 H   0  0  0  0  0  0  0  0  0  0  0  0
  -10.4020   15.0450   18.9340 C   0  0  0  0  0  2  0  0  0  0  0  0
  -10.7010   14.0100   19.8530 O   0  0  0  0  0  0  0  0  0  0  0  0
   -9.7410   12.7440   19.9900 P   0  0  0  0  0  0  0  0  0  0  0  0
   -9.6510   12.4420   21.4400 O   0  0  0  0  0  1  0  0  0  0  0  0
  -10.3720   11.6530   19.2020 O   0  0  0  0  0  0  0  0  0  0  0  0
   -8.3460   13.0230   19.4630 O   0  0  0  0  0  1  0  0  0  0  0  0
  1 17  1  6  0  0  0
  2  1  1  0  0  0  0
  3  6  1  1  0  0  0
  3  4  1  0  0  0  0
  3  2  1  0  0  0  0
  4  5  1  0  0  0  0
  5 15  1  6  0  0  0
  5  1  1  0  0  0  0
  6 13  1  0  0  0  0
  7  6  1  0  0  0  0
  8  9  1  0  0  0  0
  8  7  2  0  0  0  0
  9 11  1  0  0  0  0
 10  9  2  0  0  0  0
 11 13  1  0  0  0  0
 12 11  1  0  0  0  0
 13 14  2  0  0  0  0
 16 15  1  0  0  0  0
 17 18  1  0  0  0  0
 18 19  1  0  0  0  0
 19 20  1  0  0  0  0
 21 19  2  0  0  0  0
 22 19  1  0  0  0  0
M  END
$$$$
output_dock/lig-dump-rec-1.all_poses.pdbqt
 OpenBabel06202210173D

 22 23  0  0  1  0  0  0  0  0999 V2000
   -7.3630   13.5950   16.9550 C   0  0  1  0  0  3  0  0  0  0  0  0
   -8.1030   14.2140   17.9770 O   0  0  0  0  0  0  0  0  0  0  0  0
   -9.2180   13.4400   18.1030 C   0  0  2  0  0  3  0  0  0  0  0  0
   -9.0090   12.0090   17.6970 C   0  0  0  0  0  2  0  0  0  0  0  0
   -7.6210   12.0790   17.1520 C   0  0  2  0  0  3  0  0  0  0  0  0
  -10.5420   13.9650   17.9920 N   0  0  0  0  0  0  0  0  0  0  0  0
  -10.9760   14.7160   19.0460 C   0  0  0  0  0  3  0  0  0  0  0  0
  -12.2290   15.3020   19.0040 C   0  0  0  0  0  3  0  0  0  0  0  0
  -12.9340   15.2410   17.8150 C   0  0  0  0  0  0  0  0  0  0  0  0
  -14.0510   15.7770   17.7150 O   0  0  0  0  0  0  0  0  0  0  0  0
  -12.4720   14.4660   16.7700 N   0  0  0  0  0  0  0  0  0  0  0  0
  -13.1100   14.2230   16.0370 H   0  0  0  0  0  0  0  0  0  0  0  0
  -11.2540   13.8650   16.8310 C   0  0  0  0  0  0  0  0  0  0  0  0
  -10.8490   13.2020   15.8720 O   0  0  0  0  0  0  0  0  0  0  0  0
   -6.7820   11.5370   18.1340 O   0  0  0  0  0  0  0  0  0  0  0  0
   -6.6070   12.2130   18.8210 H   0  0  0  0  0  0  0  0  0  0  0  0
   -7.8120   14.1110   15.5890 C   0  0  0  0  0  2  0  0  0  0  0  0
   -6.9650   15.1450   15.1180 O   0  0  0  0  0  0  0  0  0  0  0  0
   -5.9260   14.8680   13.9400 P   0  0  0  0  0  0  0  0  0  0  0  0
   -5.0320   16.0500   13.8850 O   0  0  0  0  0  1  0  0  0  0  0  0
   -5.2150   13.6110   14.2950 O   0  0  0  0  0  1  0  0  0  0  0  0
   -6.6120   14.7120   12.5960 O   0  0  0  0  0  0  0  0  0  0  0  0
  1 17  1  6  0  0  0
  1  5  1  0  0  0  0
  1  2  1  0  0  0  0
  2  3  1  0  0  0  0
  3  4  1  6  0  0  0
  5  4  1  0  0  0  0
  5 15  1  1  0  0  0
  6  3  1  0  0  0  0
  6  7  1  0  0  0  0
  8  7  2  0  0  0  0
  9  8  1  0  0  0  0
 10  9  2  0  0  0  0
 11 13  1  0  0  0  0
 11  9  1  0  0  0  0
 12 11  1  0  0  0  0
 13  6  1  0  0  0  0
 14 13  2  0  0  0  0
 15 16  1  0  0  0  0
 18 17  1  0  0  0  0
 19 21  1  0  0  0  0
 19 18  1  0  0  0  0
 20 19  1  0  0  0  0
 22 19  2  0  0  0  0
M  END
$$$$
output_dock/lig-dump-rec-1.all_poses.pdbqt
 OpenBabel06202210173D

 22 23  0  0  1  0  0  0  0  0999 V2000
   -7.3720   13.8200   16.9840 C   0  0  1  0  0  3  0  0  0  0  0  0
   -8.1500   14.0050   18.1410 O   0  0  0  0  0  0  0  0  0  0  0  0
   -9.2980   13.3130   17.8900 C   0  0  2  0  0  3  0  0  0  0  0  0
   -9.1160   12.1670   16.9370 C   0  0  0  0  0  2  0  0  0  0  0  0
   -7.6970   12.3750   16.5250 C   0  0  2  0  0  3  0  0  0  0  0  0
  -10.5920   13.9140   17.9540 N   0  0  0  0  0  0  0  0  0  0  0  0
  -10.7580   15.0540   17.2210 C   0  0  0  0  0  3  0  0  0  0  0  0
  -11.9930   15.6770   17.1890 C   0  0  0  0  0  3  0  0  0  0  0  0
  -13.0650   15.0250   17.7730 C   0  0  0  0  0  0  0  0  0  0  0  0
  -14.2010   15.5280   17.7460 O   0  0  0  0  0  0  0  0  0  0  0  0
  -12.8620   13.8780   18.5150 N   0  0  0  0  0  0  0  0  0  0  0  0
  -13.5870   13.5770   19.1380 H   0  0  0  0  0  0  0  0  0  0  0  0
  -11.6390   13.2890   18.5690 C   0  0  0  0  0  0  0  0  0  0  0  0
  -11.4880   12.2470   19.2140 O   0  0  0  0  0  0  0  0  0  0  0  0
   -6.9380   11.4290   17.2280 O   0  0  0  0  0  0  0  0  0  0  0  0
   -7.4030   10.5670   17.2140 H   0  0  0  0  0  0  0  0  0  0  0  0
   -7.7200   14.8780   15.9370 C   0  0  0  0  0  2  0  0  0  0  0  0
   -7.6060   14.3650   14.6210 O   0  0  0  0  0  0  0  0  0  0  0  0
   -8.7390   14.6560   13.5380 P   0  0  0  0  0  0  0  0  0  0  0  0
   -9.6190   13.4620   13.5230 O   0  0  0  0  0  1  0  0  0  0  0  0
   -9.4350   15.8920   13.9810 O   0  0  0  0  0  1  0  0  0  0  0  0
   -8.1650   14.8560   12.1480 O   0  0  0  0  0  0  0  0  0  0  0  0
  1 17  1  6  0  0  0
  1  2  1  0  0  0  0
  3  4  1  6  0  0  0
  3  6  1  0  0  0  0
  3  2  1  0  0  0  0
  5  4  1  0  0  0  0
  5  1  1  0  0  0  0
  5 15  1  1  0  0  0
  6 13  1  0  0  0  0
  7  6  1  0  0  0  0
  8  7  2  0  0  0  0
  8  9  1  0  0  0  0
  9 11  1  0  0  0  0
 10  9  2  0  0  0  0
 11 13  1  0  0  0  0
 11 12  1  0  0  0  0
 13 14  2  0  0  0  0
 16 15  1  0  0  0  0
 18 17  1  0  0  0  0
 19 21  1  0  0  0  0
 19 18  1  0  0  0  0
 20 19  1  0  0  0  0
 22 19  2  0  0  0  0
M  END
$$$$
output_dock/lig-dump-rec-1.all_poses.pdbqt
 OpenBabel06202210173D

 22 23  0  0  1  0  0  0  0  0999 V2000
   -8.9990   11.2750   17.6740 C   0  0  1  0  0  3  0  0  0  0  0  0
   -9.5910   11.8860   16.5540 O   0  0  0  0  0  0  0  0  0  0  0  0
   -9.2750   13.2060   16.6840 C   0  0  2  0  0  3  0  0  0  0  0  0
   -8.0040   13.4510   17.4460 C   0  0  0  0  0  2  0  0  0  0  0  0
   -7.6840   12.0640   17.8970 C   0  0  2  0  0  3  0  0  0  0  0  0
  -10.2610   14.2390   16.7040 N   0  0  0  0  0  0  0  0  0  0  0  0
  -10.2370   15.0660   17.7910 C   0  0  0  0  0  3  0  0  0  0  0  0
  -11.1270   16.1220   17.8710 C   0  0  0  0  0  3  0  0  0  0  0  0
  -11.9040   16.4020   16.7620 C   0  0  0  0  0  0  0  0  0  0  0  0
  -12.6980   17.3590   16.7720 O   0  0  0  0  0  0  0  0  0  0  0  0
  -11.9130   15.5420   15.6820 N   0  0  0  0  0  0  0  0  0  0  0  0
  -12.6610   15.6120   15.0200 H   0  0  0  0  0  0  0  0  0  0  0  0
  -11.0580   14.4860   15.6240 C   0  0  0  0  0  0  0  0  0  0  0  0
  -11.0630   13.7480   14.6340 O   0  0  0  0  0  0  0  0  0  0  0  0
   -6.6590   11.6030   17.0600 O   0  0  0  0  0  0  0  0  0  0  0  0
   -5.8250   12.0660   17.2850 H   0  0  0  0  0  0  0  0  0  0  0  0
   -9.9480   11.3320   18.8710 C   0  0  0  0  0  2  0  0  0  0  0  0
   -9.2760   11.7460   20.0480 O   0  0  0  0  0  0  0  0  0  0  0  0
   -9.9130   12.8600   20.9950 P   0  0  0  0  0  0  0  0  0  0  0  0
   -9.7410   12.3740   22.3860 O   0  0  0  0  0  1  0  0  0  0  0  0
   -9.1730   14.1190   20.7170 O   0  0  0  0  0  0  0  0  0  0  0  0
  -11.3930   13.0600   20.7280 O   0  0  0  0  0  1  0  0  0  0  0  0
  1  5  1  0  0  0  0
  1 17  1  1  0  0  0
  2  3  1  0  0  0  0
  2  1  1  0  0  0  0
  3  6  1  1  0  0  0
  3  4  1  0  0  0  0
  4  5  1  0  0  0  0
  5 15  1  6  0  0  0
  6  7  1  0  0  0  0
  7  8  2  0  0  0  0
  9 10  2  0  0  0  0
  9  8  1  0  0  0  0
 11  9  1  0  0  0  0
 12 11  1  0  0  0  0
 13 11  1  0  0  0  0
 13  6  1  0  0  0  0
 14 13  2  0  0  0  0
 15 16  1  0  0  0  0
 17 18  1  0  0  0  0
 18 19  1  0  0  0  0
 19 20  1  0  0  0  0
 21 19  2  0  0  0  0
 22 19  1  0  0  0  0
M  END
$$$$
output_dock/lig-dump-rec-1.all_poses.pdbqt
 OpenBabel06202210173D

 22 23  0  0  1  0  0  0  0  0999 V2000
  -10.4930   14.7170   19.2240 C   0  0  1  0  0  3  0  0  0  0  0  0
   -9.8740   15.6660   18.3920 O   0  0  0  0  0  0  0  0  0  0  0  0
  -10.5950   15.6240   17.2360 C   0  0  2  0  0  3  0  0  0  0  0  0
  -12.0200   15.1880   17.4280 C   0  0  0  0  0  2  0  0  0  0  0  0
  -11.9990   14.8180   18.8740 C   0  0  2  0  0  3  0  0  0  0  0  0
  -10.0000   15.3750   15.9620 N   0  0  0  0  0  0  0  0  0  0  0  0
   -9.1190   16.3210   15.5200 C   0  0  0  0  0  3  0  0  0  0  0  0
   -8.4620   16.1390   14.3160 C   0  0  0  0  0  3  0  0  0  0  0  0
   -8.5990   14.9180   13.6790 C   0  0  0  0  0  0  0  0  0  0  0  0
   -8.0050   14.6930   12.6100 O   0  0  0  0  0  0  0  0  0  0  0  0
   -9.5040   13.9870   14.1460 N   0  0  0  0  0  0  0  0  0  0  0  0
   -9.7800   13.2400   13.5370 H   0  0  0  0  0  0  0  0  0  0  0  0
  -10.1720   14.1860   15.3130 C   0  0  0  0  0  0  0  0  0  0  0  0
  -10.9550   13.3250   15.7270 O   0  0  0  0  0  0  0  0  0  0  0  0
  -12.6180   15.8710   19.5610 O   0  0  0  0  0  0  0  0  0  0  0  0
  -13.5410   15.6220   19.7730 H   0  0  0  0  0  0  0  0  0  0  0  0
   -9.9060   13.3280   18.9690 C   0  0  0  0  0  2  0  0  0  0  0  0
   -8.5130   13.3890   18.7210 O   0  0  0  0  0  0  0  0  0  0  0  0
   -7.8290   12.3870   17.6860 P   0  0  0  0  0  0  0  0  0  0  0  0
   -8.8860   11.4330   17.2670 O   0  0  0  0  0  1  0  0  0  0  0  0
   -7.3170   13.2230   16.5690 O   0  0  0  0  0  0  0  0  0  0  0  0
   -6.6890   11.6060   18.3130 O   0  0  0  0  0  1  0  0  0  0  0  0
  1 17  1  6  0  0  0
  2  1  1  0  0  0  0
  3  6  1  6  0  0  0
  3  4  1  0  0  0  0
  3  2  1  0  0  0  0
  4  5  1  0  0  0  0
  5  1  1  0  0  0  0
  5 15  1  1  0  0  0
  7  6  1  0  0  0  0
  8  7  2  0  0  0  0
  9 11  1  0  0  0  0
  9  8  1  0  0  0  0
 10  9  2  0  0  0  0
 11 13  1  0  0  0  0
 12 11  1  0  0  0  0
 13 14  2  0  0  0  0
 13  6  1  0  0  0  0
 15 16  1  0  0  0  0
 18 17  1  0  0  0  0
 19 22  1  0  0  0  0
 19 18  1  0  0  0  0
 20 19  1  0  0  0  0
 21 19  2  0  0  0  0
M  END
$$$$
output_dock/lig-dump-rec-1.all_poses.pdbqt
 OpenBabel06202210173D

 22 23  0  0  1  0  0  0  0  0999 V2000
   -8.6590   16.0660   14.7930 C   0  0  1  0  0  3  0  0  0  0  0  0
   -8.0570   15.6870   16.0060 O   0  0  0  0  0  0  0  0  0  0  0  0
   -7.9590   14.3290   15.9250 C   0  0  2  0  0  3  0  0  0  0  0  0
   -7.8670   13.8140   14.5170 C   0  0  0  0  0  2  0  0  0  0  0  0
   -8.0860   15.0750   13.7490 C   0  0  2  0  0  3  0  0  0  0  0  0
   -8.5120   13.4540   16.9080 N   0  0  0  0  0  0  0  0  0  0  0  0
   -8.0340   13.6060   18.1790 C   0  0  0  0  0  3  0  0  0  0  0  0
   -8.5460   12.8300   19.2040 C   0  0  0  0  0  3  0  0  0  0  0  0
   -9.6480   12.0390   18.9310 C   0  0  0  0  0  0  0  0  0  0  0  0
  -10.1650   11.3460   19.8240 O   0  0  0  0  0  0  0  0  0  0  0  0
  -10.1020   11.9000   17.6350 N   0  0  0  0  0  0  0  0  0  0  0  0
  -10.7130   11.1350   17.4210 H   0  0  0  0  0  0  0  0  0  0  0  0
   -9.5720   12.6410   16.6260 C   0  0  0  0  0  0  0  0  0  0  0  0
  -10.0150   12.5220   15.4790 O   0  0  0  0  0  0  0  0  0  0  0  0
   -6.8260   15.4820   13.2900 O   0  0  0  0  0  0  0  0  0  0  0  0
   -6.9240   16.2910   12.7480 H   0  0  0  0  0  0  0  0  0  0  0  0
  -10.1810   16.0010   14.9150 C   0  0  0  0  0  2  0  0  0  0  0  0
  -10.6030   16.1540   16.2590 O   0  0  0  0  0  0  0  0  0  0  0  0
  -11.9600   15.4860   16.7640 P   0  0  0  0  0  0  0  0  0  0  0  0
  -12.9120   16.5990   17.0000 O   0  0  0  0  0  1  0  0  0  0  0  0
  -12.3960   14.5590   15.6870 O   0  0  0  0  0  0  0  0  0  0  0  0
  -11.7740   14.7200   18.0610 O   0  0  0  0  0  1  0  0  0  0  0  0
  1 17  1  1  0  0  0
  1  2  1  0  0  0  0
  3  4  1  6  0  0  0
  3  2  1  0  0  0  0
  3  6  1  0  0  0  0
  5 15  1  1  0  0  0
  5  4  1  0  0  0  0
  5  1  1  0  0  0  0
  6  7  1  0  0  0  0
  7  8  2  0  0  0  0
  9  8  1  0  0  0  0
  9 10  2  0  0  0  0
 11  9  1  0  0  0  0
 12 11  1  0  0  0  0
 13  6  1  0  0  0  0
 13 11  1  0  0  0  0
 14 13  2  0  0  0  0
 16 15  1  0  0  0  0
 17 18  1  0  0  0  0
 18 19  1  0  0  0  0
 19 20  1  0  0  0  0
 19 22  1  0  0  0  0
 21 19  2  0  0  0  0
M  END
$$$$
output_dock/lig-dump-rec-1.all_poses.pdbqt
 OpenBabel06202210173D

 22 23  0  0  1  0  0  0  0  0999 V2000
   -3.3360    0.0770   -4.1020 C   0  0  1  0  0  3  0  0  0  0  0  0
   -3.0390    0.8790   -2.9850 O   0  0  0  0  0  0  0  0  0  0  0  0
   -1.7990    1.3790   -3.2480 C   0  0  2  0  0  3  0  0  0  0  0  0
   -1.4910    1.4910   -4.7140 C   0  0  0  0  0  2  0  0  0  0  0  0
   -2.6920    0.8250   -5.2980 C   0  0  2  0  0  3  0  0  0  0  0  0
   -0.6950    1.2170   -2.3570 N   0  0  0  0  0  0  0  0  0  0  0  0
    0.2020    0.2420   -2.6890 C   0  0  0  0  0  3  0  0  0  0  0  0
    1.3270    0.0470   -1.9060 C   0  0  0  0  0  3  0  0  0  0  0  0
    1.5860    0.9620   -0.9020 C   0  0  0  0  0  0  0  0  0  0  0  0
    2.5990    0.8490   -0.1900 O   0  0  0  0  0  0  0  0  0  0  0  0
    0.6550    1.9310   -0.5860 N   0  0  0  0  0  0  0  0  0  0  0  0
    0.7360    2.4020    0.2950 H   0  0  0  0  0  0  0  0  0  0  0  0
   -0.4640    2.0970   -1.3390 C   0  0  0  0  0  0  0  0  0  0  0  0
   -1.2680    2.9900   -1.0550 O   0  0  0  0  0  0  0  0  0  0  0  0
   -3.5220    1.8500   -5.7710 O   0  0  0  0  0  0  0  0  0  0  0  0
   -3.2060    2.1420   -6.6510 H   0  0  0  0  0  0  0  0  0  0  0  0
   -2.7810   -1.3330   -3.9030 C   0  0  0  0  0  2  0  0  0  0  0  0
   -3.8100   -2.3070   -3.9390 O   0  0  0  0  0  0  0  0  0  0  0  0
   -4.0420   -3.2860   -2.7020 P   0  0  0  0  0  0  0  0  0  0  0  0
   -3.2890   -4.5280   -3.0050 O   0  0  0  0  0  0  0  0  0  0  0  0
   -3.5340   -2.5720   -1.5010 O   0  0  0  0  0  1  0  0  0  0  0  0
   -5.5060   -3.6360   -2.5140 O   0  0  0  0  0  1  0  0  0  0  0  0
  1 17  1  1  0  0  0
  1  2  1  0  0  0  0
  3  4  1  6  0  0  0
  3  2  1  0  0  0  0
  3  6  1  0  0  0  0
  5 15  1  1  0  0  0
  5  4  1  0  0  0  0
  5  1  1  0  0  0  0
  6 13  1  0  0  0  0
  7  6  1  0  0  0  0
  7  8  2  0  0  0  0
  8  9  1  0  0  0  0
  9 11  1  0  0  0  0
  9 10  2  0  0  0  0
 11 12  1  0  0  0  0
 13 14  2  0  0  0  0
 13 11  1  0  0  0  0
 16 15  1  0  0  0  0
 18 17  1  0  0  0  0
 18 19  1  0  0  0  0
 19 22  1  0  0  0  0
 19 21  1  0  0  0  0
 20 19  2  0  0  0  0
M  END
$$$$
output_dock/lig-dump-rec-1.all_poses.pdbqt
 OpenBabel06202210173D

 22 23  0  0  1  0  0  0  0  0999 V2000
   -8.7320   14.3850   13.5220 C   0  0  1  0  0  3  0  0  0  0  0  0
   -9.8550   13.8230   14.1540 O   0  0  0  0  0  0  0  0  0  0  0  0
  -10.5190   14.8920   14.6780 C   0  0  2  0  0  3  0  0  0  0  0  0
  -10.2860   16.1730   13.9310 C   0  0  0  0  0  2  0  0  0  0  0  0
   -9.2410   15.7360   12.9580 C   0  0  2  0  0  3  0  0  0  0  0  0
  -10.8510   14.9930   16.0640 N   0  0  0  0  0  0  0  0  0  0  0  0
  -10.0630   14.2790   16.9200 C   0  0  0  0  0  3  0  0  0  0  0  0
  -10.2860   14.3540   18.2840 C   0  0  0  0  0  3  0  0  0  0  0  0
  -11.2000   15.2850   18.7420 C   0  0  0  0  0  0  0  0  0  0  0  0
  -11.4140   15.4140   19.9600 O   0  0  0  0  0  0  0  0  0  0  0  0
  -11.9880   15.9860   17.8510 N   0  0  0  0  0  0  0  0  0  0  0  0
  -12.8090   16.4450   18.1960 H   0  0  0  0  0  0  0  0  0  0  0  0
  -11.7860   15.8820   16.5100 C   0  0  0  0  0  0  0  0  0  0  0  0
  -12.4830   16.5410   15.7320 O   0  0  0  0  0  0  0  0  0  0  0  0
   -9.8910   15.5690   11.7280 O   0  0  0  0  0  0  0  0  0  0  0  0
   -9.2910   15.8410   11.0040 H   0  0  0  0  0  0  0  0  0  0  0  0
   -7.5860   14.5420   14.5210 C   0  0  0  0  0  2  0  0  0  0  0  0
   -6.9760   15.8170   14.4170 O   0  0  0  0  0  0  0  0  0  0  0  0
   -5.6170   16.1300   15.1900 P   0  0  0  0  0  0  0  0  0  0  0  0
   -4.5940   16.3920   14.1490 O   0  0  0  0  0  0  0  0  0  0  0  0
   -5.8890   17.3080   16.0550 O   0  0  0  0  0  1  0  0  0  0  0  0
   -5.1580   14.9600   16.0400 O   0  0  0  0  0  1  0  0  0  0  0  0
  1  2  1  0  0  0  0
  1 17  1  1  0  0  0
  2  3  1  0  0  0  0
  3  4  1  1  0  0  0
  3  6  1  0  0  0  0
  5 15  1  6  0  0  0
  5  1  1  0  0  0  0
  5  4  1  0  0  0  0
  6 13  1  0  0  0  0
  6  7  1  0  0  0  0
  7  8  2  0  0  0  0
  8  9  1  0  0  0  0
  9 10  2  0  0  0  0
 11 12  1  0  0  0  0
 11  9  1  0  0  0  0
 13 11  1  0  0  0  0
 14 13  2  0  0  0  0
 16 15  1  0  0  0  0
 18 17  1  0  0  0  0
 18 19  1  0  0  0  0
 19 22  1  0  0  0  0
 19 21  1  0  0  0  0
 20 19  2  0  0  0  0
M  END
$$$$
output_dock/lig-dump-rec-1.all_poses.pdbqt
 OpenBabel06202210173D

 22 23  0  0  1  0  0  0  0  0999 V2000
    9.8270    8.5160   16.2880 C   0  0  1  0  0  3  0  0  0  0  0  0
    9.8150    9.6520   15.4600 O   0  0  0  0  0  0  0  0  0  0  0  0
   10.9140   10.3620   15.8440 C   0  0  2  0  0  3  0  0  0  0  0  0
   12.0100    9.5130   16.4210 C   0  0  0  0  0  2  0  0  0  0  0  0
   11.3300    8.1850   16.4710 C   0  0  2  0  0  3  0  0  0  0  0  0
   10.8450   11.7230   16.2710 N   0  0  0  0  0  0  0  0  0  0  0  0
   11.4570   12.0070   17.4580 C   0  0  0  0  0  3  0  0  0  0  0  0
   11.4780   13.3090   17.9260 C   0  0  0  0  0  3  0  0  0  0  0  0
   11.0190   14.3090   17.0870 C   0  0  0  0  0  0  0  0  0  0  0  0
   11.0440   15.4980   17.4480 O   0  0  0  0  0  0  0  0  0  0  0  0
   10.3970   13.9880   15.8970 N   0  0  0  0  0  0  0  0  0  0  0  0
    9.8450   14.6890   15.4410 H   0  0  0  0  0  0  0  0  0  0  0  0
   10.3500   12.7020   15.4580 C   0  0  0  0  0  0  0  0  0  0  0  0
    9.8160   12.4420   14.3750 O   0  0  0  0  0  0  0  0  0  0  0  0
   11.8290    7.4440   15.3920 O   0  0  0  0  0  0  0  0  0  0  0  0
   11.2090    6.7140   15.1850 H   0  0  0  0  0  0  0  0  0  0  0  0
    9.1100    8.8150   17.6050 C   0  0  0  0  0  2  0  0  0  0  0  0
    7.8600    9.4450   17.3860 O   0  0  0  0  0  0  0  0  0  0  0  0
    7.4520   10.7450   18.2130 P   0  0  0  0  0  0  0  0  0  0  0  0
    8.5690   11.0110   19.1520 O   0  0  0  0  0  1  0  0  0  0  0  0
    7.2510   11.8300   17.2170 O   0  0  0  0  0  0  0  0  0  0  0  0
    6.1800   10.5380   19.0150 O   0  0  0  0  0  1  0  0  0  0  0  0
  1  5  1  0  0  0  0
  1 17  1  1  0  0  0
  2  3  1  0  0  0  0
  2  1  1  0  0  0  0
  3  6  1  1  0  0  0
  3  4  1  0  0  0  0
  4  5  1  0  0  0  0
  5 15  1  6  0  0  0
  6  7  1  0  0  0  0
  7  8  2  0  0  0  0
  9 10  2  0  0  0  0
  9  8  1  0  0  0  0
 11  9  1  0  0  0  0
 12 11  1  0  0  0  0
 13 11  1  0  0  0  0
 13  6  1  0  0  0  0
 14 13  2  0  0  0  0
 16 15  1  0  0  0  0
 18 17  1  0  0  0  0
 18 19  1  0  0  0  0
 19 22  1  0  0  0  0
 19 20  1  0  0  0  0
 21 19  2  0  0  0  0
M  END
$$$$
output_dock/lig-dump-rec-1.all_poses.pdbqt
 OpenBabel06202210173D

 22 23  0  0  1  0  0  0  0  0999 V2000
   10.3300    9.8550   17.1360 C   0  0  1  0  0  3  0  0  0  0  0  0
   10.0490   10.6270   18.2780 O   0  0  0  0  0  0  0  0  0  0  0  0
    8.6960   10.7890   18.2520 C   0  0  2  0  0  3  0  0  0  0  0  0
    7.9680    9.6800   17.5470 C   0  0  0  0  0  2  0  0  0  0  0  0
    9.1190    8.8960   17.0090 C   0  0  2  0  0  3  0  0  0  0  0  0
    8.0700   12.0720   18.2760 N   0  0  0  0  0  0  0  0  0  0  0  0
    7.4490   12.4550   17.1210 C   0  0  0  0  0  3  0  0  0  0  0  0
    6.7780   13.6640   17.0690 C   0  0  0  0  0  3  0  0  0  0  0  0
    6.6210   14.3700   18.2480 C   0  0  0  0  0  0  0  0  0  0  0  0
    6.0000   15.4470   18.2620 O   0  0  0  0  0  0  0  0  0  0  0  0
    7.2680   13.9620   19.3970 N   0  0  0  0  0  0  0  0  0  0  0  0
    7.3600   14.6140   20.1520 H   0  0  0  0  0  0  0  0  0  0  0  0
    7.9540   12.7880   19.4320 C   0  0  0  0  0  0  0  0  0  0  0  0
    8.5000   12.4280   20.4800 O   0  0  0  0  0  0  0  0  0  0  0  0
    9.2580    7.7770   17.8400 O   0  0  0  0  0  0  0  0  0  0  0  0
    9.2300    6.9630   17.2960 H   0  0  0  0  0  0  0  0  0  0  0  0
   10.5130   10.7600   15.9180 C   0  0  0  0  0  2  0  0  0  0  0  0
   11.4890   11.7600   16.1550 O   0  0  0  0  0  0  0  0  0  0  0  0
   11.1660   13.2940   15.8600 P   0  0  0  0  0  0  0  0  0  0  0  0
   10.0760   13.3060   14.8530 O   0  0  0  0  0  0  0  0  0  0  0  0
   10.7700   13.8960   17.1600 O   0  0  0  0  0  1  0  0  0  0  0  0
   12.3630   14.0320   15.2910 O   0  0  0  0  0  1  0  0  0  0  0  0
  1 17  1  6  0  0  0
  1  2  1  0  0  0  0
  3  4  1  6  0  0  0
  3  6  1  0  0  0  0
  3  2  1  0  0  0  0
  5  1  1  0  0  0  0
  5  4  1  0  0  0  0
  5 15  1  1  0  0  0
  6 13  1  0  0  0  0
  7  6  1  0  0  0  0
  8  7  2  0  0  0  0
  8  9  1  0  0  0  0
  9 10  2  0  0  0  0
  9 11  1  0  0  0  0
 11 13  1  0  0  0  0
 11 12  1  0  0  0  0
 13 14  2  0  0  0  0
 16 15  1  0  0  0  0
 17 18  1  0  0  0  0
 19 18  1  0  0  0  0
 19 21  1  0  0  0  0
 20 19  2  0  0  0  0
 22 19  1  0  0  0  0
M  END
$$$$
output_dock/lig-dump-rec-1.all_poses.pdbqt
 OpenBabel06202210173D

 22 23  0  0  1  0  0  0  0  0999 V2000
    7.5010   12.0400   17.0400 C   0  0  1  0  0  3  0  0  0  0  0  0
    7.6820   10.6570   16.8580 O   0  0  0  0  0  0  0  0  0  0  0  0
    8.7160   10.3400   17.6880 C   0  0  2  0  0  3  0  0  0  0  0  0
    8.8420   11.2520   18.8740 C   0  0  0  0  0  2  0  0  0  0  0  0
    7.8080   12.2770   18.5410 C   0  0  2  0  0  3  0  0  0  0  0  0
    9.9040    9.6930   17.2300 N   0  0  0  0  0  0  0  0  0  0  0  0
   10.9900   10.5000   17.0450 C   0  0  0  0  0  3  0  0  0  0  0  0
   12.1960    9.9510   16.6470 C   0  0  0  0  0  3  0  0  0  0  0  0
   12.3010    8.5720   16.6100 C   0  0  0  0  0  0  0  0  0  0  0  0
   13.3710    8.0280   16.2880 O   0  0  0  0  0  0  0  0  0  0  0  0
   11.1820    7.7830   16.7930 N   0  0  0  0  0  0  0  0  0  0  0  0
   11.2200    6.8250   16.5040 H   0  0  0  0  0  0  0  0  0  0  0  0
    9.9920    8.3320   17.1530 C   0  0  0  0  0  0  0  0  0  0  0  0
    9.0120    7.6040   17.3410 O   0  0  0  0  0  0  0  0  0  0  0  0
    6.6960   11.9910   19.3450 O   0  0  0  0  0  0  0  0  0  0  0  0
    6.2890   12.8300   19.6460 H   0  0  0  0  0  0  0  0  0  0  0  0
    8.4240   12.8220   16.1060 C   0  0  0  0  0  2  0  0  0  0  0  0
    8.0860   14.1970   16.0720 O   0  0  0  0  0  0  0  0  0  0  0  0
    9.2260   15.3100   16.0030 P   0  0  0  0  0  0  0  0  0  0  0  0
    9.3610   15.8560   17.3760 O   0  0  0  0  0  1  0  0  0  0  0  0
   10.4530   14.6230   15.5220 O   0  0  0  0  0  1  0  0  0  0  0  0
    8.8650   16.4430   15.0610 O   0  0  0  0  0  0  0  0  0  0  0  0
  1 17  1  6  0  0  0
  1  5  1  0  0  0  0
  2  1  1  0  0  0  0
  2  3  1  0  0  0  0
  3  6  1  6  0  0  0
  3  4  1  0  0  0  0
  5  4  1  0  0  0  0
  5 15  1  1  0  0  0
  7  6  1  0  0  0  0
  8  7  2  0  0  0  0
  9  8  1  0  0  0  0
  9 11  1  0  0  0  0
 10  9  2  0  0  0  0
 11 13  1  0  0  0  0
 12 11  1  0  0  0  0
 13  6  1  0  0  0  0
 13 14  2  0  0  0  0
 15 16  1  0  0  0  0
 18 17  1  0  0  0  0
 19 18  1  0  0  0  0
 19 20  1  0  0  0  0
 21 19  1  0  0  0  0
 22 19  2  0  0  0  0
M  END
$$$$
output_dock/lig-dump-rec-1.all_poses.pdbqt
 OpenBabel06202210173D

 22 23  0  0  1  0  0  0  0  0999 V2000
   11.9490   11.5850   17.0360 C   0  0  1  0  0  3  0  0  0  0  0  0
   11.2530   11.6580   18.2550 O   0  0  0  0  0  0  0  0  0  0  0  0
   10.0780   11.0120   18.0120 C   0  0  2  0  0  3  0  0  0  0  0  0
   10.1730    9.9690   16.9350 C   0  0  0  0  0  2  0  0  0  0  0  0
   11.5670   10.2010   16.4530 C   0  0  2  0  0  3  0  0  0  0  0  0
    8.8030   11.6180   18.2260 N   0  0  0  0  0  0  0  0  0  0  0  0
    8.1380   12.0210   17.1030 C   0  0  0  0  0  3  0  0  0  0  0  0
    6.8760   12.5780   17.2130 C   0  0  0  0  0  3  0  0  0  0  0  0
    6.2620   12.5540   18.4520 C   0  0  0  0  0  0  0  0  0  0  0  0
    5.1160   13.0140   18.5990 O   0  0  0  0  0  0  0  0  0  0  0  0
    6.9630   12.1480   19.5700 N   0  0  0  0  0  0  0  0  0  0  0  0
    6.6020   12.3850   20.4740 H   0  0  0  0  0  0  0  0  0  0  0  0
    8.2170   11.6320   19.4590 C   0  0  0  0  0  0  0  0  0  0  0  0
    8.8130   11.2480   20.4690 O   0  0  0  0  0  0  0  0  0  0  0  0
   12.3510    9.1770   17.0000 O   0  0  0  0  0  0  0  0  0  0  0  0
   11.8100    8.6550   17.6280 H   0  0  0  0  0  0  0  0  0  0  0  0
   11.5540   12.7510   16.1300 C   0  0  0  0  0  2  0  0  0  0  0  0
   11.9670   13.9940   16.6720 O   0  0  0  0  0  0  0  0  0  0  0  0
   11.3550   15.3600   16.1240 P   0  0  0  0  0  0  0  0  0  0  0  0
   12.3040   15.8640   15.1010 O   0  0  0  0  0  0  0  0  0  0  0  0
   10.0160   15.0270   15.5690 O   0  0  0  0  0  1  0  0  0  0  0  0
   11.2160   16.4050   17.2160 O   0  0  0  0  0  1  0  0  0  0  0  0
  1 17  1  6  0  0  0
  1  2  1  0  0  0  0
  3  4  1  6  0  0  0
  3  6  1  0  0  0  0
  3  2  1  0  0  0  0
  5  4  1  0  0  0  0
  5 15  1  1  0  0  0
  5  1  1  0  0  0  0
  6 13  1  0  0  0  0
  7  8  2  0  0  0  0
  7  6  1  0  0  0  0
  8  9  1  0  0  0  0
  9 10  2  0  0  0  0
  9 11  1  0  0  0  0
 11 12  1  0  0  0  0
 13 11  1  0  0  0  0
 13 14  2  0  0  0  0
 15 16  1  0  0  0  0
 17 18  1  0  0  0  0
 19 18  1  0  0  0  0
 19 22  1  0  0  0  0
 20 19  2  0  0  0  0
 21 19  1  0  0  0  0
M  END
$$$$
output_dock/lig-dump-rec-1.all_poses.pdbqt
 OpenBabel06202210173D

 22 23  0  0  1  0  0  0  0  0999 V2000
    7.9200   10.3000   17.9290 C   0  0  1  0  0  3  0  0  0  0  0  0
    8.1470   11.1220   16.8110 O   0  0  0  0  0  0  0  0  0  0  0  0
    9.4980   11.3030   16.7950 C   0  0  2  0  0  3  0  0  0  0  0  0
   10.2670   10.1770   17.4250 C   0  0  0  0  0  2  0  0  0  0  0  0
    9.1470    9.3550   17.9720 C   0  0  2  0  0  3  0  0  0  0  0  0
   10.1060   12.5950   16.8020 N   0  0  0  0  0  0  0  0  0  0  0  0
   10.5910   13.0200   18.0060 C   0  0  0  0  0  3  0  0  0  0  0  0
   11.2360   14.2410   18.0950 C   0  0  0  0  0  3  0  0  0  0  0  0
   11.5130   14.9170   16.9210 C   0  0  0  0  0  0  0  0  0  0  0  0
   12.1170   16.0030   16.9440 O   0  0  0  0  0  0  0  0  0  0  0  0
   11.0010   14.4660   15.7200 N   0  0  0  0  0  0  0  0  0  0  0  0
   10.9840   15.0950   14.9410 H   0  0  0  0  0  0  0  0  0  0  0  0
   10.3390   13.2810   15.6450 C   0  0  0  0  0  0  0  0  0  0  0  0
    9.9160   12.8830   14.5550 O   0  0  0  0  0  0  0  0  0  0  0  0
    8.9910    8.2690   17.1000 O   0  0  0  0  0  0  0  0  0  0  0  0
    8.1000    8.3030   16.6950 H   0  0  0  0  0  0  0  0  0  0  0  0
    7.7690   11.1510   19.1900 C   0  0  0  0  0  2  0  0  0  0  0  0
    7.0720   12.3560   18.9250 O   0  0  0  0  0  0  0  0  0  0  0  0
    5.5040   12.4600   19.1890 P   0  0  0  0  0  0  0  0  0  0  0  0
    4.9400   13.2410   18.0610 O   0  0  0  0  0  0  0  0  0  0  0  0
    4.9950   11.0640   19.2480 O   0  0  0  0  0  1  0  0  0  0  0  0
    5.1870   13.1800   20.4870 O   0  0  0  0  0  1  0  0  0  0  0  0
  1  5  1  0  0  0  0
  1 17  1  1  0  0  0
  2  1  1  0  0  0  0
  3  6  1  1  0  0  0
  3  2  1  0  0  0  0
  3  4  1  0  0  0  0
  4  5  1  0  0  0  0
  5 15  1  6  0  0  0
  6  7  1  0  0  0  0
  7  8  2  0  0  0  0
  9 10  2  0  0  0  0
  9  8  1  0  0  0  0
 11  9  1  0  0  0  0
 12 11  1  0  0  0  0
 13 11  1  0  0  0  0
 13  6  1  0  0  0  0
 14 13  2  0  0  0  0
 16 15  1  0  0  0  0
 18 19  1  0  0  0  0
 18 17  1  0  0  0  0
 19 21  1  0  0  0  0
 19 22  1  0  0  0  0
 20 19  2  0  0  0  0
M  END
$$$$
output_dock/lig-dump-rec-1.all_poses.pdbqt
 OpenBabel06202210173D

 22 23  0  0  1  0  0  0  0  0999 V2000
    9.8360   11.8420   15.8240 C   0  0  1  0  0  3  0  0  0  0  0  0
    9.1060   12.9530   16.2820 O   0  0  0  0  0  0  0  0  0  0  0  0
    8.8760   12.6860   17.5990 C   0  0  2  0  0  3  0  0  0  0  0  0
    9.9130   11.7980   18.2260 C   0  0  0  0  0  2  0  0  0  0  0  0
   10.7260   11.4390   17.0270 C   0  0  2  0  0  3  0  0  0  0  0  0
    7.5660   12.6640   18.1660 N   0  0  0  0  0  0  0  0  0  0  0  0
    7.1520   11.4640   18.6680 C   0  0  0  0  0  3  0  0  0  0  0  0
    5.9130   11.3630   19.2770 C   0  0  0  0  0  3  0  0  0  0  0  0
    5.2040   12.5290   19.5030 C   0  0  0  0  0  0  0  0  0  0  0  0
    4.1000   12.4960   20.0740 O   0  0  0  0  0  0  0  0  0  0  0  0
    5.6450   13.7260   18.9760 N   0  0  0  0  0  0  0  0  0  0  0  0
    5.0000   14.4910   18.9200 H   0  0  0  0  0  0  0  0  0  0  0  0
    6.8480   13.8120   18.3490 C   0  0  0  0  0  0  0  0  0  0  0  0
    7.2360   14.9000   17.9110 O   0  0  0  0  0  0  0  0  0  0  0  0
   11.8890   12.2180   17.0910 O   0  0  0  0  0  0  0  0  0  0  0  0
   11.6510   13.1640   17.0030 H   0  0  0  0  0  0  0  0  0  0  0  0
    8.8850   10.7310   15.3790 C   0  0  0  0  0  2  0  0  0  0  0  0
    9.4700    9.4500   15.5350 O   0  0  0  0  0  0  0  0  0  0  0  0
    8.7940    8.1650   14.8780 P   0  0  0  0  0  0  0  0  0  0  0  0
    9.4390    7.9830   13.5540 O   0  0  0  0  0  0  0  0  0  0  0  0
    9.0440    7.0360   15.8120 O   0  0  0  0  0  1  0  0  0  0  0  0
    7.3020    8.3440   14.6720 O   0  0  0  0  0  1  0  0  0  0  0  0
  1 17  1  1  0  0  0
  1  2  1  0  0  0  0
  1  5  1  0  0  0  0
  2  3  1  0  0  0  0
  3  6  1  6  0  0  0
  3  4  1  0  0  0  0
  5 15  1  1  0  0  0
  5  4  1  0  0  0  0
  6 13  1  0  0  0  0
  6  7  1  0  0  0  0
  7  8  2  0  0  0  0
  8  9  1  0  0  0  0
  9 10  2  0  0  0  0
 11  9  1  0  0  0  0
 12 11  1  0  0  0  0
 13 11  1  0  0  0  0
 14 13  2  0  0  0  0
 16 15  1  0  0  0  0
 17 18  1  0  0  0  0
 19 18  1  0  0  0  0
 19 21  1  0  0  0  0
 20 19  2  0  0  0  0
 22 19  1  0  0  0  0
M  END
$$$$
output_dock/lig-dump-rec-1.all_poses.pdbqt
 OpenBabel06202210173D

 22 23  0  0  1  0  0  0  0  0999 V2000
   -8.5280   12.6240   19.4650 C   0  0  1  0  0  3  0  0  0  0  0  0
   -8.3430   13.8920   18.8860 O   0  0  0  0  0  0  0  0  0  0  0  0
   -9.5270   14.5340   19.0920 C   0  0  2  0  0  3  0  0  0  0  0  0
  -10.2770   14.0470   20.2990 C   0  0  0  0  0  2  0  0  0  0  0  0
   -9.4240   12.8890   20.7020 C   0  0  2  0  0  3  0  0  0  0  0  0
  -10.2940   15.1010   18.0300 N   0  0  0  0  0  0  0  0  0  0  0  0
  -11.6190   15.3030   18.2910 C   0  0  0  0  0  3  0  0  0  0  0  0
  -12.4280   15.8900   17.3340 C   0  0  0  0  0  3  0  0  0  0  0  0
  -11.8240   16.4060   16.2020 C   0  0  0  0  0  0  0  0  0  0  0  0
  -12.5020   16.9700   15.3260 O   0  0  0  0  0  0  0  0  0  0  0  0
  -10.4840   16.1780   15.9620 N   0  0  0  0  0  0  0  0  0  0  0  0
  -10.1330   16.3210   15.0350 H   0  0  0  0  0  0  0  0  0  0  0  0
   -9.7010   15.5700   16.8930 C   0  0  0  0  0  0  0  0  0  0  0  0
   -8.4980   15.4040   16.6690 O   0  0  0  0  0  0  0  0  0  0  0  0
   -8.6700   13.3180   21.8020 O   0  0  0  0  0  0  0  0  0  0  0  0
   -7.8220   12.8280   21.8250 H   0  0  0  0  0  0  0  0  0  0  0  0
   -9.1620   11.6680   18.4550 C   0  0  0  0  0  2  0  0  0  0  0  0
   -8.7420   11.9550   17.1320 O   0  0  0  0  0  0  0  0  0  0  0  0
   -9.8020   12.0300   15.9430 P   0  0  0  0  0  0  0  0  0  0  0  0
   -9.9800   10.6410   15.4540 O   0  0  0  0  0  1  0  0  0  0  0  0
  -11.0410   12.6110   16.5230 O   0  0  0  0  0  1  0  0  0  0  0  0
   -9.3140   12.8930   14.7940 O   0  0  0  0  0  0  0  0  0  0  0  0
  1 17  1  6  0  0  0
  1  5  1  0  0  0  0
  2  3  1  0  0  0  0
  2  1  1  0  0  0  0
  3  6  1  6  0  0  0
  3  4  1  0  0  0  0
  4  5  1  0  0  0  0
  5 15  1  1  0  0  0
  6  7  1  0  0  0  0
  8  7  2  0  0  0  0
  9  8  1  0  0  0  0
 10  9  2  0  0  0  0
 11  9  1  0  0  0  0
 11 13  1  0  0  0  0
 12 11  1  0  0  0  0
 13  6  1  0  0  0  0
 14 13  2  0  0  0  0
 15 16  1  0  0  0  0
 18 17  1  0  0  0  0
 19 21  1  0  0  0  0
 19 18  1  0  0  0  0
 20 19  1  0  0  0  0
 22 19  2  0  0  0  0
M  END
$$$$
output_dock/lig-dump-rec-1.all_poses.pdbqt
 OpenBabel06202210173D

 22 23  0  0  1  0  0  0  0  0999 V2000
   -9.2700   11.9040   17.3940 C   0  0  1  0  0  3  0  0  0  0  0  0
   -8.9020   12.1090   16.0530 O   0  0  0  0  0  0  0  0  0  0  0  0
   -8.3910   13.3730   16.0320 C   0  0  2  0  0  3  0  0  0  0  0  0
   -7.8050   13.8090   17.3440 C   0  0  0  0  0  2  0  0  0  0  0  0
   -8.1900   12.6570   18.2120 C   0  0  2  0  0  3  0  0  0  0  0  0
   -8.8850   14.3930   15.1640 N   0  0  0  0  0  0  0  0  0  0  0  0
   -8.6160   14.2280   13.8350 C   0  0  0  0  0  3  0  0  0  0  0  0
   -9.0960   15.1450   12.9170 C   0  0  0  0  0  3  0  0  0  0  0  0
   -9.9770   16.1130   13.3650 C   0  0  0  0  0  0  0  0  0  0  0  0
  -10.4610   16.9420   12.5760 O   0  0  0  0  0  0  0  0  0  0  0  0
  -10.2220   16.2590   14.7160 N   0  0  0  0  0  0  0  0  0  0  0  0
  -10.6390   17.1120   15.0370 H   0  0  0  0  0  0  0  0  0  0  0  0
   -9.7200   15.3740   15.6170 C   0  0  0  0  0  0  0  0  0  0  0  0
   -9.9770   15.5070   16.8180 O   0  0  0  0  0  0  0  0  0  0  0  0
   -7.0340   11.8820   18.3760 O   0  0  0  0  0  0  0  0  0  0  0  0
   -7.1030   11.0760   17.8240 H   0  0  0  0  0  0  0  0  0  0  0  0
  -10.6850   12.4250   17.6400 C   0  0  0  0  0  2  0  0  0  0  0  0
  -10.9230   12.6560   19.0180 O   0  0  0  0  0  0  0  0  0  0  0  0
  -11.8860   13.8370   19.4880 P   0  0  0  0  0  0  0  0  0  0  0  0
  -12.6850   13.3020   20.6170 O   0  0  0  0  0  1  0  0  0  0  0  0
  -11.0020   14.9670   19.8780 O   0  0  0  0  0  1  0  0  0  0  0  0
  -12.8320   14.2780   18.3860 O   0  0  0  0  0  0  0  0  0  0  0  0
  1 17  1  6  0  0  0
  1  5  1  0  0  0  0
  2  1  1  0  0  0  0
  3  6  1  1  0  0  0
  3  2  1  0  0  0  0
  3  4  1  0  0  0  0
  4  5  1  0  0  0  0
  5 15  1  6  0  0  0
  6 13  1  0  0  0  0
  7  6  1  0  0  0  0
  8  9  1  0  0  0  0
  8  7  2  0  0  0  0
  9 11  1  0  0  0  0
 10  9  2  0  0  0  0
 11 12  1  0  0  0  0
 11 13  1  0  0  0  0
 13 14  2  0  0  0  0
 16 15  1  0  0  0  0
 17 18  1  0  0  0  0
 18 19  1  0  0  0  0
 19 21  1  0  0  0  0
 19 20  1  0  0  0  0
 22 19  2  0  0  0  0
M  END
$$$$
output_dock/lig-dump-rec-1.all_poses.pdbqt
 OpenBabel06202210173D

 22 23  0  0  1  0  0  0  0  0999 V2000
  -10.9140   14.6930   19.3730 C   0  0  1  0  0  3  0  0  0  0  0  0
  -11.3840   15.6680   18.4750 O   0  0  0  0  0  0  0  0  0  0  0  0
  -11.6140   14.9800   17.3210 C   0  0  2  0  0  3  0  0  0  0  0  0
  -11.9350   13.5290   17.5360 C   0  0  0  0  0  2  0  0  0  0  0  0
  -11.7050   13.4130   19.0060 C   0  0  2  0  0  3  0  0  0  0  0  0
  -11.0190   15.3420   16.0740 N   0  0  0  0  0  0  0  0  0  0  0  0
   -9.9870   14.5520   15.6530 C   0  0  0  0  0  3  0  0  0  0  0  0
   -9.3820   14.8030   14.4340 C   0  0  0  0  0  3  0  0  0  0  0  0
   -9.9580   15.7490   13.6060 C   0  0  0  0  0  0  0  0  0  0  0  0
   -9.4710   15.9900   12.4880 O   0  0  0  0  0  0  0  0  0  0  0  0
  -10.9950   16.5370   14.0630 N   0  0  0  0  0  0  0  0  0  0  0  0
  -11.2160   17.3760   13.5620 H   0  0  0  0  0  0  0  0  0  0  0  0
  -11.5640   16.3070   15.2770 C   0  0  0  0  0  0  0  0  0  0  0  0
  -12.5110   17.0050   15.6520 O   0  0  0  0  0  0  0  0  0  0  0  0
  -12.9720   13.4000   19.6040 O   0  0  0  0  0  0  0  0  0  0  0  0
  -13.0210   12.6620   20.2460 H   0  0  0  0  0  0  0  0  0  0  0  0
   -9.4010   14.5290   19.2310 C   0  0  0  0  0  2  0  0  0  0  0  0
   -9.0030   13.1830   19.4250 O   0  0  0  0  0  0  0  0  0  0  0  0
   -7.9320   12.5070   18.4560 P   0  0  0  0  0  0  0  0  0  0  0  0
   -6.7500   12.1920   19.2940 O   0  0  0  0  0  1  0  0  0  0  0  0
   -8.5860   11.3000   17.8860 O   0  0  0  0  0  1  0  0  0  0  0  0
   -7.5020   13.4390   17.3380 O   0  0  0  0  0  0  0  0  0  0  0  0
  1 17  1  6  0  0  0
  2  1  1  0  0  0  0
  3  6  1  6  0  0  0
  3  4  1  0  0  0  0
  3  2  1  0  0  0  0
  4  5  1  0  0  0  0
  5  1  1  0  0  0  0
  5 15  1  1  0  0  0
  7  6  1  0  0  0  0
  8  7  2  0  0  0  0
  9 11  1  0  0  0  0
  9  8  1  0  0  0  0
 10  9  2  0  0  0  0
 11 13  1  0  0  0  0
 12 11  1  0  0  0  0
 13 14  2  0  0  0  0
 13  6  1  0  0  0  0
 15 16  1  0  0  0  0
 17 18  1  0  0  0  0
 19 20  1  0  0  0  0
 19 18  1  0  0  0  0
 21 19  1  0  0  0  0
 22 19  2  0  0  0  0
M  END
$$$$
output_dock/lig-dump-rec-1.all_poses.pdbqt
 OpenBabel06202210173D

 22 23  0  0  1  0  0  0  0  0999 V2000
  -10.5830   15.0340   16.8370 C   0  0  1  0  0  3  0  0  0  0  0  0
   -9.6710   16.0750   17.0800 O   0  0  0  0  0  0  0  0  0  0  0  0
   -9.3310   16.5230   15.8380 C   0  0  2  0  0  3  0  0  0  0  0  0
  -10.3960   16.3010   14.8030 C   0  0  0  0  0  2  0  0  0  0  0  0
  -11.3780   15.4970   15.5900 C   0  0  2  0  0  3  0  0  0  0  0  0
   -7.9790   16.5900   15.3830 N   0  0  0  0  0  0  0  0  0  0  0  0
   -7.2320   17.6210   15.8780 C   0  0  0  0  0  3  0  0  0  0  0  0
   -5.8990   17.7360   15.5260 C   0  0  0  0  0  3  0  0  0  0  0  0
   -5.3250   16.7000   14.8110 C   0  0  0  0  0  0  0  0  0  0  0  0
   -4.1230   16.7400   14.4960 O   0  0  0  0  0  0  0  0  0  0  0  0
   -6.1080   15.6760   14.3170 N   0  0  0  0  0  0  0  0  0  0  0  0
   -5.7330   15.0930   13.5940 H   0  0  0  0  0  0  0  0  0  0  0  0
   -7.4260   15.5870   14.6400 C   0  0  0  0  0  0  0  0  0  0  0  0
   -8.1000   14.6460   14.2110 O   0  0  0  0  0  0  0  0  0  0  0  0
  -12.4170   16.3720   15.9360 O   0  0  0  0  0  0  0  0  0  0  0  0
  -12.0420   17.1620   16.3760 H   0  0  0  0  0  0  0  0  0  0  0  0
   -9.8380   13.7170   16.6220 C   0  0  0  0  0  2  0  0  0  0  0  0
  -10.4010   12.6680   17.3910 O   0  0  0  0  0  0  0  0  0  0  0  0
   -9.8850   12.3840   18.8730 P   0  0  0  0  0  0  0  0  0  0  0  0
   -9.6770   10.9180   18.9700 O   0  0  0  0  0  0  0  0  0  0  0  0
   -8.6310   13.1660   19.0380 O   0  0  0  0  0  1  0  0  0  0  0  0
  -10.8970   12.8030   19.9230 O   0  0  0  0  0  1  0  0  0  0  0  0
  1 17  1  6  0  0  0
  1  2  1  0  0  0  0
  3  4  1  6  0  0  0
  3  2  1  0  0  0  0
  4  5  1  0  0  0  0
  5 15  1  1  0  0  0
  5  1  1  0  0  0  0
  6  3  1  0  0  0  0
  6  7  1  0  0  0  0
  8  7  2  0  0  0  0
  9  8  1  0  0  0  0
 10  9  2  0  0  0  0
 11 13  1  0  0  0  0
 11  9  1  0  0  0  0
 12 11  1  0  0  0  0
 13  6  1  0  0  0  0
 14 13  2  0  0  0  0
 15 16  1  0  0  0  0
 17 18  1  0  0  0  0
 18 19  1  0  0  0  0
 19 20  2  0  0  0  0
 19 21  1  0  0  0  0
 19 22  1  0  0  0  0
M  END
$$$$
output_dock/lig-dump-rec-1.all_poses.pdbqt
 OpenBabel06202210173D

 22 23  0  0  1  0  0  0  0  0999 V2000
    5.9650   12.9080   19.5540 C   0  0  1  0  0  3  0  0  0  0  0  0
    5.1650   13.2100   18.4380 O   0  0  0  0  0  0  0  0  0  0  0  0
    6.0080   13.0830   17.3740 C   0  0  2  0  0  3  0  0  0  0  0  0
    7.1370   12.1200   17.6090 C   0  0  0  0  0  2  0  0  0  0  0  0
    6.9290   11.8030   19.0530 C   0  0  2  0  0  3  0  0  0  0  0  0
    6.2290   14.1340   16.4320 N   0  0  0  0  0  0  0  0  0  0  0  0
    7.4820   14.6780   16.4270 C   0  0  0  0  0  3  0  0  0  0  0  0
    7.7970   15.6700   15.5160 C   0  0  0  0  0  3  0  0  0  0  0  0
    6.8740   15.9620   14.5280 C   0  0  0  0  0  0  0  0  0  0  0  0
    7.1210   16.8230   13.6670 O   0  0  0  0  0  0  0  0  0  0  0  0
    5.6130   15.4010   14.5650 N   0  0  0  0  0  0  0  0  0  0  0  0
    4.8880   15.8170   14.0130 H   0  0  0  0  0  0  0  0  0  0  0  0
    5.2980   14.4500   15.4840 C   0  0  0  0  0  0  0  0  0  0  0  0
    4.1730   13.9410   15.4800 O   0  0  0  0  0  0  0  0  0  0  0  0
    6.3300   10.5370   19.0970 O   0  0  0  0  0  0  0  0  0  0  0  0
    5.5650   10.5620   19.7080 H   0  0  0  0  0  0  0  0  0  0  0  0
    6.6880   14.1630   20.0430 C   0  0  0  0  0  2  0  0  0  0  0  0
    8.0650   13.9170   20.2670 O   0  0  0  0  0  0  0  0  0  0  0  0
    8.6480   13.8640   21.7490 P   0  0  0  0  0  0  0  0  0  0  0  0
    9.6170   14.9830   21.8580 O   0  0  0  0  0  0  0  0  0  0  0  0
    7.4840   14.0050   22.6630 O   0  0  0  0  0  1  0  0  0  0  0  0
    9.3740   12.5620   22.0340 O   0  0  0  0  0  1  0  0  0  0  0  0
  1 17  1  6  0  0  0
  2  1  1  0  0  0  0
  3  6  1  1  0  0  0
  3  4  1  0  0  0  0
  3  2  1  0  0  0  0
  4  5  1  0  0  0  0
  5 15  1  6  0  0  0
  5  1  1  0  0  0  0
  7  6  1  0  0  0  0
  8  7  2  0  0  0  0
  9 11  1  0  0  0  0
  9  8  1  0  0  0  0
 10  9  2  0  0  0  0
 11 13  1  0  0  0  0
 12 11  1  0  0  0  0
 13  6  1  0  0  0  0
 14 13  2  0  0  0  0
 15 16  1  0  0  0  0
 17 18  1  0  0  0  0
 18 19  1  0  0  0  0
 19 20  2  0  0  0  0
 19 22  1  0  0  0  0
 19 21  1  0  0  0  0
M  END
$$$$
output_dock/lig-dump-rec-1.all_poses.pdbqt
 OpenBabel06202210173D

 22 23  0  0  1  0  0  0  0  0999 V2000
  -17.2160    4.5470    7.2580 C   0  0  1  0  0  3  0  0  0  0  0  0
  -17.8880    3.3220    7.4150 O   0  0  0  0  0  0  0  0  0  0  0  0
  -16.9170    2.3800    7.2520 C   0  0  2  0  0  3  0  0  0  0  0  0
  -15.5420    2.8610    7.6190 C   0  0  0  0  0  2  0  0  0  0  0  0
  -15.8180    4.3040    7.8810 C   0  0  2  0  0  3  0  0  0  0  0  0
  -17.0080    1.3330    6.2850 N   0  0  0  0  0  0  0  0  0  0  0  0
  -16.2740    1.5060    5.1460 C   0  0  0  0  0  3  0  0  0  0  0  0
  -16.2680    0.5200    4.1750 C   0  0  0  0  0  3  0  0  0  0  0  0
  -16.8790   -0.6850    4.4700 C   0  0  0  0  0  0  0  0  0  0  0  0
  -16.8760   -1.6140    3.6440 O   0  0  0  0  0  0  0  0  0  0  0  0
  -17.6210   -0.8260    5.6260 N   0  0  0  0  0  0  0  0  0  0  0  0
  -18.2620   -1.5930    5.6930 H   0  0  0  0  0  0  0  0  0  0  0  0
  -17.6500    0.1600    6.5620 C   0  0  0  0  0  0  0  0  0  0  0  0
  -18.2960   -0.0000    7.6020 O   0  0  0  0  0  0  0  0  0  0  0  0
  -15.8400    4.4560    9.2730 O   0  0  0  0  0  0  0  0  0  0  0  0
  -15.0640    4.9820    9.5550 H   0  0  0  0  0  0  0  0  0  0  0  0
  -17.1600    4.9340    5.7810 C   0  0  0  0  0  2  0  0  0  0  0  0
  -16.1020    5.8400    5.5200 O   0  0  0  0  0  0  0  0  0  0  0  0
  -16.2890    7.4020    5.7830 P   0  0  0  0  0  0  0  0  0  0  0  0
  -15.6020    7.6950    7.0650 O   0  0  0  0  0  1  0  0  0  0  0  0
  -15.6800    8.0990    4.6190 O   0  0  0  0  0  0  0  0  0  0  0  0
  -17.7490    7.7910    5.9120 O   0  0  0  0  0  1  0  0  0  0  0  0
  1 17  1  6  0  0  0
  1  2  1  0  0  0  0
  1  5  1  0  0  0  0
  3  6  1  6  0  0  0
  3  2  1  0  0  0  0
  3  4  1  0  0  0  0
  4  5  1  0  0  0  0
  5 15  1  1  0  0  0
  6 13  1  0  0  0  0
  7  6  1  0  0  0  0
  8  9  1  0  0  0  0
  8  7  2  0  0  0  0
  9 11  1  0  0  0  0
 10  9  2  0  0  0  0
 11 12  1  0  0  0  0
 11 13  1  0  0  0  0
 13 14  2  0  0  0  0
 15 16  1  0  0  0  0
 18 17  1  0  0  0  0
 18 19  1  0  0  0  0
 19 22  1  0  0  0  0
 19 20  1  0  0  0  0
 21 19  2  0  0  0  0
M  END
$$$$
output_dock/lig-dump-rec-1.all_poses.pdbqt
 OpenBabel06202210173D

 22 23  0  0  1  0  0  0  0  0999 V2000
    8.5040   13.8620   16.4390 C   0  0  1  0  0  3  0  0  0  0  0  0
    7.6600   14.0590   15.3320 O   0  0  0  0  0  0  0  0  0  0  0  0
    7.5640   15.4140   15.2180 C   0  0  2  0  0  3  0  0  0  0  0  0
    8.7580   16.1520   15.7540 C   0  0  0  0  0  2  0  0  0  0  0  0
    9.5260   15.0240   16.3600 C   0  0  2  0  0  3  0  0  0  0  0  0
    6.3140   16.1040   15.2170 N   0  0  0  0  0  0  0  0  0  0  0  0
    5.9370   16.6580   16.4070 C   0  0  0  0  0  3  0  0  0  0  0  0
    4.7610   17.3840   16.4860 C   0  0  0  0  0  3  0  0  0  0  0  0
    4.0890   17.6620   15.3100 C   0  0  0  0  0  0  0  0  0  0  0  0
    3.0450   18.3360   15.3230 O   0  0  0  0  0  0  0  0  0  0  0  0
    4.4900   17.0800   14.1240 N   0  0  0  0  0  0  0  0  0  0  0  0
    3.8510   17.0760   13.3520 H   0  0  0  0  0  0  0  0  0  0  0  0
    5.6290   16.3400   14.0590 C   0  0  0  0  0  0  0  0  0  0  0  0
    5.9850   15.8540   12.9810 O   0  0  0  0  0  0  0  0  0  0  0  0
   10.5690   14.7340   15.4700 O   0  0  0  0  0  0  0  0  0  0  0  0
   10.6730   15.4750   14.8390 H   0  0  0  0  0  0  0  0  0  0  0  0
    7.6890   13.8620   17.7330 C   0  0  0  0  0  2  0  0  0  0  0  0
    7.1520   12.5810   18.0100 O   0  0  0  0  0  0  0  0  0  0  0  0
    5.8340   12.4290   18.8950 P   0  0  0  0  0  0  0  0  0  0  0  0
    6.1770   12.9330   20.2470 O   0  0  0  0  0  1  0  0  0  0  0  0
    4.7810   13.2310   18.2190 O   0  0  0  0  0  0  0  0  0  0  0  0
    5.3870   10.9840   19.0130 O   0  0  0  0  0  1  0  0  0  0  0  0
  1 17  1  1  0  0  0
  2  1  1  0  0  0  0
  3  6  1  1  0  0  0
  3  2  1  0  0  0  0
  3  4  1  0  0  0  0
  4  5  1  0  0  0  0
  5 15  1  6  0  0  0
  5  1  1  0  0  0  0
  6  7  1  0  0  0  0
  7  8  2  0  0  0  0
  9 10  2  0  0  0  0
  9  8  1  0  0  0  0
 11  9  1  0  0  0  0
 12 11  1  0  0  0  0
 13 11  1  0  0  0  0
 13  6  1  0  0  0  0
 14 13  2  0  0  0  0
 16 15  1  0  0  0  0
 17 18  1  0  0  0  0
 18 19  1  0  0  0  0
 19 22  1  0  0  0  0
 19 20  1  0  0  0  0
 21 19  2  0  0  0  0
M  END
$$$$
output_dock/lig-dump-rec-1.all_poses.pdbqt
 OpenBabel06202210173D

 22 23  0  0  1  0  0  0  0  0999 V2000
  -15.6580    3.4590    6.9810 C   0  0  1  0  0  3  0  0  0  0  0  0
  -16.3190    2.3260    7.4870 O   0  0  0  0  0  0  0  0  0  0  0  0
  -16.8050    1.6970    6.3800 C   0  0  2  0  0  3  0  0  0  0  0  0
  -16.0050    1.9590    5.1360 C   0  0  0  0  0  2  0  0  0  0  0  0
  -15.0440    2.9840    5.6400 C   0  0  2  0  0  3  0  0  0  0  0  0
  -18.1870    1.3780    6.2150 N   0  0  0  0  0  0  0  0  0  0  0  0
  -18.8920    2.1940    5.3780 C   0  0  0  0  0  3  0  0  0  0  0  0
  -20.2270    1.9310    5.1250 C   0  0  0  0  0  3  0  0  0  0  0  0
  -20.7590    0.7480    5.6040 C   0  0  0  0  0  0  0  0  0  0  0  0
  -21.9440    0.4500    5.3790 O   0  0  0  0  0  0  0  0  0  0  0  0
  -20.0230   -0.0520    6.4560 N   0  0  0  0  0  0  0  0  0  0  0  0
  -20.5030   -0.7470    6.9940 H   0  0  0  0  0  0  0  0  0  0  0  0
  -18.7210    0.2300    6.7270 C   0  0  0  0  0  0  0  0  0  0  0  0
  -18.0730   -0.5170    7.4680 O   0  0  0  0  0  0  0  0  0  0  0  0
  -13.8260    2.3190    5.8380 O   0  0  0  0  0  0  0  0  0  0  0  0
  -13.8970    1.4040    5.4970 H   0  0  0  0  0  0  0  0  0  0  0  0
  -16.6410    4.6170    6.8180 C   0  0  0  0  0  2  0  0  0  0  0  0
  -16.1310    5.6150    5.9510 O   0  0  0  0  0  0  0  0  0  0  0  0
  -16.0540    7.1360    6.4230 P   0  0  0  0  0  0  0  0  0  0  0  0
  -15.7510    7.9360    5.2100 O   0  0  0  0  0  0  0  0  0  0  0  0
  -17.3760    7.4570    7.0220 O   0  0  0  0  0  1  0  0  0  0  0  0
  -14.9540    7.3640    7.4430 O   0  0  0  0  0  1  0  0  0  0  0  0
  1 17  1  6  0  0  0
  1  2  1  0  0  0  0
  3  4  1  6  0  0  0
  3  2  1  0  0  0  0
  4  5  1  0  0  0  0
  5 15  1  1  0  0  0
  5  1  1  0  0  0  0
  6  3  1  0  0  0  0
  6 13  1  0  0  0  0
  7  6  1  0  0  0  0
  8  7  2  0  0  0  0
  8  9  1  0  0  0  0
  9 11  1  0  0  0  0
 10  9  2  0  0  0  0
 11 13  1  0  0  0  0
 11 12  1  0  0  0  0
 13 14  2  0  0  0  0
 16 15  1  0  0  0  0
 18 19  1  0  0  0  0
 18 17  1  0  0  0  0
 19 21  1  0  0  0  0
 19 22  1  0  0  0  0
 20 19  2  0  0  0  0
M  END
$$$$
output_dock/lig-dump-rec-1.all_poses.pdbqt
 OpenBabel06202210173D

 22 23  0  0  1  0  0  0  0  0999 V2000
  -11.2640   12.9050   18.2260 C   0  0  1  0  0  3  0  0  0  0  0  0
  -10.5000   12.1600   17.3100 O   0  0  0  0  0  0  0  0  0  0  0  0
   -9.3360   12.8600   17.1940 C   0  0  2  0  0  3  0  0  0  0  0  0
   -8.9930   13.6690   18.4110 C   0  0  0  0  0  2  0  0  0  0  0  0
  -10.2260   13.4700   19.2290 C   0  0  2  0  0  3  0  0  0  0  0  0
   -8.8320   13.3190   15.9390 N   0  0  0  0  0  0  0  0  0  0  0  0
   -9.7210   13.3180   14.9020 C   0  0  0  0  0  3  0  0  0  0  0  0
   -9.3310   13.7890   13.6610 C   0  0  0  0  0  3  0  0  0  0  0  0
   -8.0940   14.4010   13.5580 C   0  0  0  0  0  0  0  0  0  0  0  0
   -7.7090   14.8690   12.4720 O   0  0  0  0  0  0  0  0  0  0  0  0
   -7.2150   14.3780   14.6220 N   0  0  0  0  0  0  0  0  0  0  0  0
   -6.2490   14.5820   14.4490 H   0  0  0  0  0  0  0  0  0  0  0  0
   -7.5940   13.8830   15.8300 C   0  0  0  0  0  0  0  0  0  0  0  0
   -6.8000   13.9010   16.7760 O   0  0  0  0  0  0  0  0  0  0  0  0
   -9.8990   12.5300   20.2150 O   0  0  0  0  0  0  0  0  0  0  0  0
   -9.0830   12.0560   19.9530 H   0  0  0  0  0  0  0  0  0  0  0  0
  -12.0520   13.9930   17.4960 C   0  0  0  0  0  2  0  0  0  0  0  0
  -11.7000   15.2870   17.9540 O   0  0  0  0  0  0  0  0  0  0  0  0
  -11.4420   16.4710   16.9180 P   0  0  0  0  0  0  0  0  0  0  0  0
  -10.0420   16.3200   16.4500 O   0  0  0  0  0  1  0  0  0  0  0  0
  -12.4440   16.3040   15.8330 O   0  0  0  0  0  0  0  0  0  0  0  0
  -11.5980   17.8370   17.5590 O   0  0  0  0  0  1  0  0  0  0  0  0
  1 17  1  6  0  0  0
  1  5  1  0  0  0  0
  2  1  1  0  0  0  0
  3  6  1  6  0  0  0
  3  2  1  0  0  0  0
  3  4  1  0  0  0  0
  4  5  1  0  0  0  0
  5 15  1  1  0  0  0
  7  6  1  0  0  0  0
  8  7  2  0  0  0  0
  9  8  1  0  0  0  0
  9 11  1  0  0  0  0
 10  9  2  0  0  0  0
 11 13  1  0  0  0  0
 12 11  1  0  0  0  0
 13  6  1  0  0  0  0
 13 14  2  0  0  0  0
 16 15  1  0  0  0  0
 17 18  1  0  0  0  0
 19 22  1  0  0  0  0
 19 18  1  0  0  0  0
 20 19  1  0  0  0  0
 21 19  2  0  0  0  0
M  END
$$$$
output_dock/lig-dump-rec-1.all_poses.pdbqt
 OpenBabel06202210173D

 22 23  0  0  1  0  0  0  0  0999 V2000
   -9.2040   14.7330   16.3480 C   0  0  1  0  0  3  0  0  0  0  0  0
   -9.3050   15.6860   15.3180 O   0  0  0  0  0  0  0  0  0  0  0  0
   -9.4290   14.9420   14.1820 C   0  0  2  0  0  3  0  0  0  0  0  0
  -10.0480   13.5920   14.4080 C   0  0  0  0  0  2  0  0  0  0  0  0
  -10.1310   13.5760   15.8990 C   0  0  2  0  0  3  0  0  0  0  0  0
   -8.5490   15.0820   13.0670 N   0  0  0  0  0  0  0  0  0  0  0  0
   -7.3030   14.5420   13.2180 C   0  0  0  0  0  3  0  0  0  0  0  0
   -6.4000   14.5910   12.1710 C   0  0  0  0  0  3  0  0  0  0  0  0
   -6.8530   15.0420   10.9440 C   0  0  0  0  0  0  0  0  0  0  0  0
   -6.0900   15.0780    9.9630 O   0  0  0  0  0  0  0  0  0  0  0  0
   -8.1140   15.5900   10.8250 N   0  0  0  0  0  0  0  0  0  0  0  0
   -8.3220   16.1420   10.0160 H   0  0  0  0  0  0  0  0  0  0  0  0
   -8.9860   15.5680   11.8680 C   0  0  0  0  0  0  0  0  0  0  0  0
  -10.1200   16.0370   11.7300 O   0  0  0  0  0  0  0  0  0  0  0  0
  -11.4700   13.8330   16.2220 O   0  0  0  0  0  0  0  0  0  0  0  0
  -12.0370   13.1350   15.8350 H   0  0  0  0  0  0  0  0  0  0  0  0
   -7.7490   14.3040   16.5310 C   0  0  0  0  0  2  0  0  0  0  0  0
   -7.4710   13.9670   17.8790 O   0  0  0  0  0  0  0  0  0  0  0  0
   -7.7600   12.4970   18.4230 P   0  0  0  0  0  0  0  0  0  0  0  0
   -9.0520   12.5650   19.1480 O   0  0  0  0  0  1  0  0  0  0  0  0
   -7.8020   11.6100   17.2310 O   0  0  0  0  0  0  0  0  0  0  0  0
   -6.6870   12.0200   19.3850 O   0  0  0  0  0  1  0  0  0  0  0  0
  1 17  1  6  0  0  0
  2  1  1  0  0  0  0
  3  6  1  1  0  0  0
  3  4  1  0  0  0  0
  3  2  1  0  0  0  0
  4  5  1  0  0  0  0
  5 15  1  6  0  0  0
  5  1  1  0  0  0  0
  6  7  1  0  0  0  0
  8  7  2  0  0  0  0
  9  8  1  0  0  0  0
 10  9  2  0  0  0  0
 11  9  1  0  0  0  0
 11 13  1  0  0  0  0
 12 11  1  0  0  0  0
 13  6  1  0  0  0  0
 14 13  2  0  0  0  0
 16 15  1  0  0  0  0
 17 18  1  0  0  0  0
 18 19  1  0  0  0  0
 19 20  1  0  0  0  0
 19 22  1  0  0  0  0
 21 19  2  0  0  0  0
M  END
$$$$
output_dock/lig-dump-rec-1.all_poses.pdbqt
 OpenBabel06202210173D

 22 23  0  0  1  0  0  0  0  0999 V2000
  -10.7880   14.1890   18.7310 C   0  0  1  0  0  3  0  0  0  0  0  0
   -9.8510   15.0080   18.0760 O   0  0  0  0  0  0  0  0  0  0  0  0
  -10.6090   15.8420   17.3090 C   0  0  2  0  0  3  0  0  0  0  0  0
  -11.9880   16.0790   17.8550 C   0  0  0  0  0  2  0  0  0  0  0  0
  -11.9970   15.1210   19.0000 C   0  0  2  0  0  3  0  0  0  0  0  0
  -10.4320   15.9680   15.8970 N   0  0  0  0  0  0  0  0  0  0  0  0
  -11.5410   16.3300   15.1870 C   0  0  0  0  0  3  0  0  0  0  0  0
  -11.4500   16.5190   13.8190 C   0  0  0  0  0  3  0  0  0  0  0  0
  -10.1930   16.4940   13.2420 C   0  0  0  0  0  0  0  0  0  0  0  0
  -10.0530   16.6890   12.0220 O   0  0  0  0  0  0  0  0  0  0  0  0
   -9.0930   16.1160   13.9860 N   0  0  0  0  0  0  0  0  0  0  0  0
   -8.2570   15.8500   13.5020 H   0  0  0  0  0  0  0  0  0  0  0  0
   -9.1950   15.9000   15.3240 C   0  0  0  0  0  0  0  0  0  0  0  0
   -8.1910   15.5920   15.9740 O   0  0  0  0  0  0  0  0  0  0  0  0
  -11.8080   15.8890   20.1580 O   0  0  0  0  0  0  0  0  0  0  0  0
  -10.8740   15.8200   20.4440 H   0  0  0  0  0  0  0  0  0  0  0  0
  -11.1380   12.9840   17.8590 C   0  0  0  0  0  2  0  0  0  0  0  0
  -10.1210   12.7150   16.9090 O   0  0  0  0  0  0  0  0  0  0  0  0
   -9.0090   11.6110   17.2040 P   0  0  0  0  0  0  0  0  0  0  0  0
   -7.7020   12.3110   17.1550 O   0  0  0  0  0  1  0  0  0  0  0  0
   -9.3220   11.0480   18.5440 O   0  0  0  0  0  1  0  0  0  0  0  0
   -9.0090   10.5060   16.1660 O   0  0  0  0  0  0  0  0  0  0  0  0
  1 17  1  6  0  0  0
  1  5  1  0  0  0  0
  2  1  1  0  0  0  0
  3  6  1  6  0  0  0
  3  4  1  0  0  0  0
  3  2  1  0  0  0  0
  4  5  1  0  0  0  0
  5 15  1  1  0  0  0
  7  6  1  0  0  0  0
  8  7  2  0  0  0  0
  9  8  1  0  0  0  0
  9 11  1  0  0  0  0
 10  9  2  0  0  0  0
 11 13  1  0  0  0  0
 12 11  1  0  0  0  0
 13  6  1  0  0  0  0
 13 14  2  0  0  0  0
 15 16  1  0  0  0  0
 18 19  1  0  0  0  0
 18 17  1  0  0  0  0
 19 21  1  0  0  0  0
 20 19  1  0  0  0  0
 22 19  2  0  0  0  0
M  END
$$$$
output_dock/lig-dump-rec-1.all_poses.pdbqt
 OpenBabel06202210173D

 22 23  0  0  1  0  0  0  0  0999 V2000
  -12.9850    8.3740    0.7760 C   0  0  1  0  0  3  0  0  0  0  0  0
  -13.5380    8.5710    2.0540 O   0  0  0  0  0  0  0  0  0  0  0  0
  -14.4550    7.5710    2.1840 C   0  0  2  0  0  3  0  0  0  0  0  0
  -14.1350    6.3490    1.3720 C   0  0  0  0  0  2  0  0  0  0  0  0
  -12.9520    6.8340    0.6020 C   0  0  2  0  0  3  0  0  0  0  0  0
  -15.8290    7.8160    2.4850 N   0  0  0  0  0  0  0  0  0  0  0  0
  -16.7100    7.6190    1.4590 C   0  0  0  0  0  3  0  0  0  0  0  0
  -18.0660    7.7890    1.6750 C   0  0  0  0  0  3  0  0  0  0  0  0
  -18.4960    7.9940    2.9730 C   0  0  0  0  0  0  0  0  0  0  0  0
  -19.7070    8.1230    3.2250 O   0  0  0  0  0  0  0  0  0  0  0  0
  -17.5810    8.1990    3.9860 N   0  0  0  0  0  0  0  0  0  0  0  0
  -17.9010    8.6030    4.8460 H   0  0  0  0  0  0  0  0  0  0  0  0
  -16.2480    8.0620    3.7610 C   0  0  0  0  0  0  0  0  0  0  0  0
  -15.4490    8.2200    4.6900 O   0  0  0  0  0  0  0  0  0  0  0  0
  -11.8240    6.2710    1.2130 O   0  0  0  0  0  0  0  0  0  0  0  0
  -12.0390    5.3650    1.5190 H   0  0  0  0  0  0  0  0  0  0  0  0
  -13.8310    9.0830   -0.2810 C   0  0  0  0  0  2  0  0  0  0  0  0
  -13.7600    8.4220   -1.5330 O   0  0  0  0  0  0  0  0  0  0  0  0
  -15.0820    8.1540   -2.3840 P   0  0  0  0  0  0  0  0  0  0  0  0
  -14.7380    8.4510   -3.7960 O   0  0  0  0  0  0  0  0  0  0  0  0
  -15.4460    6.7310   -2.1550 O   0  0  0  0  0  1  0  0  0  0  0  0
  -16.2280    9.0550   -1.9620 O   0  0  0  0  0  1  0  0  0  0  0  0
  1 17  1  6  0  0  0
  1  2  1  0  0  0  0
  2  3  1  0  0  0  0
  3  4  1  6  0  0  0
  3  6  1  0  0  0  0
  5  1  1  0  0  0  0
  5 15  1  1  0  0  0
  5  4  1  0  0  0  0
  6 13  1  0  0  0  0
  7  8  2  0  0  0  0
  7  6  1  0  0  0  0
  8  9  1  0  0  0  0
  9 10  2  0  0  0  0
  9 11  1  0  0  0  0
 11 12  1  0  0  0  0
 13 11  1  0  0  0  0
 13 14  2  0  0  0  0
 15 16  1  0  0  0  0
 18 17  1  0  0  0  0
 19 21  1  0  0  0  0
 19 22  1  0  0  0  0
 19 18  1  0  0  0  0
 20 19  2  0  0  0  0
M  END
$$$$
output_dock/lig-dump-rec-1.all_poses.pdbqt
 OpenBabel06202210173D

 22 23  0  0  1  0  0  0  0  0999 V2000
   -9.4580   13.5970   15.9670 C   0  0  1  0  0  3  0  0  0  0  0  0
   -8.9880   13.4090   14.6550 O   0  0  0  0  0  0  0  0  0  0  0  0
   -8.4420   14.6110   14.3160 C   0  0  2  0  0  3  0  0  0  0  0  0
   -7.9420   15.4010   15.4910 C   0  0  0  0  0  2  0  0  0  0  0  0
   -8.4200   14.5460   16.6180 C   0  0  2  0  0  3  0  0  0  0  0  0
   -8.8440   15.3440   13.1570 N   0  0  0  0  0  0  0  0  0  0  0  0
   -8.1530   15.0730   12.0110 C   0  0  0  0  0  3  0  0  0  0  0  0
   -8.5060   15.7040   10.8300 C   0  0  0  0  0  3  0  0  0  0  0  0
   -9.6590   16.4670   10.8210 C   0  0  0  0  0  0  0  0  0  0  0  0
  -10.0360   17.0300    9.7790 O   0  0  0  0  0  0  0  0  0  0  0  0
  -10.3300   16.7290   11.9990 N   0  0  0  0  0  0  0  0  0  0  0  0
  -10.9900   17.4830   12.0160 H   0  0  0  0  0  0  0  0  0  0  0  0
   -9.9590   16.1320   13.1620 C   0  0  0  0  0  0  0  0  0  0  0  0
  -10.5930   16.3580   14.1980 O   0  0  0  0  0  0  0  0  0  0  0  0
   -7.3010   13.8440   17.0840 O   0  0  0  0  0  0  0  0  0  0  0  0
   -6.9730   13.2510   16.3770 H   0  0  0  0  0  0  0  0  0  0  0  0
  -10.8730   14.1750   15.9440 C   0  0  0  0  0  2  0  0  0  0  0  0
  -11.6240   13.7590   17.0710 O   0  0  0  0  0  0  0  0  0  0  0  0
  -12.1670   14.8290   18.1220 P   0  0  0  0  0  0  0  0  0  0  0  0
  -12.5410   14.0670   19.3390 O   0  0  0  0  0  1  0  0  0  0  0  0
  -11.0590   15.7920   18.3510 O   0  0  0  0  0  1  0  0  0  0  0  0
  -13.3930   15.5620   17.6110 O   0  0  0  0  0  0  0  0  0  0  0  0
  1 17  1  6  0  0  0
  1  5  1  0  0  0  0
  2  1  1  0  0  0  0
  3  6  1  1  0  0  0
  3  2  1  0  0  0  0
  3  4  1  0  0  0  0
  4  5  1  0  0  0  0
  5 15  1  6  0  0  0
  6 13  1  0  0  0  0
  7  6  1  0  0  0  0
  8  7  2  0  0  0  0
  9  8  1  0  0  0  0
  9 11  1  0  0  0  0
 10  9  2  0  0  0  0
 11 12  1  0  0  0  0
 11 13  1  0  0  0  0
 13 14  2  0  0  0  0
 16 15  1  0  0  0  0
 17 18  1  0  0  0  0
 18 19  1  0  0  0  0
 19 21  1  0  0  0  0
 19 20  1  0  0  0  0
 22 19  2  0  0  0  0
M  END
$$$$
output_dock/lig-dump-rec-1.all_poses.pdbqt
 OpenBabel06202210173D

 22 23  0  0  1  0  0  0  0  0999 V2000
  -14.1260    8.4110    0.2120 C   0  0  1  0  0  3  0  0  0  0  0  0
  -14.4690    8.5750    1.5660 O   0  0  0  0  0  0  0  0  0  0  0  0
  -13.9710    7.4630    2.1770 C   0  0  2  0  0  3  0  0  0  0  0  0
  -12.7840    6.8670    1.4750 C   0  0  0  0  0  2  0  0  0  0  0  0
  -12.7440    7.7110    0.2440 C   0  0  2  0  0  3  0  0  0  0  0  0
  -14.7780    6.5830    2.9600 N   0  0  0  0  0  0  0  0  0  0  0  0
  -14.8500    5.2910    2.5230 C   0  0  0  0  0  3  0  0  0  0  0  0
  -15.5740    4.3590    3.2470 C   0  0  0  0  0  3  0  0  0  0  0  0
  -16.0650    4.7370    4.4830 C   0  0  0  0  0  0  0  0  0  0  0  0
  -16.6960    3.9280    5.1860 O   0  0  0  0  0  0  0  0  0  0  0  0
  -15.9840    6.0530    4.8930 N   0  0  0  0  0  0  0  0  0  0  0  0
  -16.5680    6.3550    5.6490 H   0  0  0  0  0  0  0  0  0  0  0  0
  -15.3000    6.9710    4.1610 C   0  0  0  0  0  0  0  0  0  0  0  0
  -15.2150    8.1360    4.5620 O   0  0  0  0  0  0  0  0  0  0  0  0
  -11.7040    8.6320    0.4300 O   0  0  0  0  0  0  0  0  0  0  0  0
  -12.0830    9.5180    0.6070 H   0  0  0  0  0  0  0  0  0  0  0  0
  -15.1980    7.5950   -0.5100 C   0  0  0  0  0  2  0  0  0  0  0  0
  -14.8460    7.3530   -1.8610 O   0  0  0  0  0  0  0  0  0  0  0  0
  -15.0620    8.4800   -2.9690 P   0  0  0  0  0  0  0  0  0  0  0  0
  -16.4400    8.9960   -2.7780 O   0  0  0  0  0  1  0  0  0  0  0  0
  -14.0130    9.5060   -2.7330 O   0  0  0  0  0  1  0  0  0  0  0  0
  -14.9390    7.9290   -4.3780 O   0  0  0  0  0  0  0  0  0  0  0  0
  1 17  1  6  0  0  0
  1  5  1  0  0  0  0
  1  2  1  0  0  0  0
  2  3  1  0  0  0  0
  3  4  1  6  0  0  0
  3  6  1  0  0  0  0
  5 15  1  1  0  0  0
  5  4  1  0  0  0  0
  6 13  1  0  0  0  0
  7  6  1  0  0  0  0
  7  8  2  0  0  0  0
  8  9  1  0  0  0  0
  9 11  1  0  0  0  0
  9 10  2  0  0  0  0
 11 12  1  0  0  0  0
 13 14  2  0  0  0  0
 13 11  1  0  0  0  0
 15 16  1  0  0  0  0
 18 17  1  0  0  0  0
 19 20  1  0  0  0  0
 19 21  1  0  0  0  0
 19 18  1  0  0  0  0
 22 19  2  0  0  0  0
M  END
$$$$
output_dock/lig-dump-rec-1.all_poses.pdbqt
 OpenBabel06202210173D

 22 23  0  0  1  0  0  0  0  0999 V2000
  -15.0050    6.9010   -0.9640 C   0  0  1  0  0  3  0  0  0  0  0  0
  -14.5320    6.3910    0.2590 O   0  0  0  0  0  0  0  0  0  0  0  0
  -15.6460    6.2930    1.0380 C   0  0  2  0  0  3  0  0  0  0  0  0
  -16.9150    6.0990    0.2570 C   0  0  0  0  0  2  0  0  0  0  0  0
  -16.4040    6.2560   -1.1370 C   0  0  2  0  0  3  0  0  0  0  0  0
  -15.7540    6.9210    2.3160 N   0  0  0  0  0  0  0  0  0  0  0  0
  -17.0190    7.0480    2.8140 C   0  0  0  0  0  3  0  0  0  0  0  0
  -17.2130    7.6030    4.0670 C   0  0  0  0  0  3  0  0  0  0  0  0
  -16.0970    7.8590    4.8430 C   0  0  0  0  0  0  0  0  0  0  0  0
  -16.2180    8.3290    5.9870 O   0  0  0  0  0  0  0  0  0  0  0  0
  -14.8310    7.7280    4.3080 N   0  0  0  0  0  0  0  0  0  0  0  0
  -14.0640    8.1630    4.7830 H   0  0  0  0  0  0  0  0  0  0  0  0
  -14.6490    7.2120    3.0630 C   0  0  0  0  0  0  0  0  0  0  0  0
  -13.5060    7.0760    2.6170 O   0  0  0  0  0  0  0  0  0  0  0  0
  -16.3120    4.9640   -1.6730 O   0  0  0  0  0  0  0  0  0  0  0  0
  -17.1740    4.7130   -2.0640 H   0  0  0  0  0  0  0  0  0  0  0  0
  -15.0460    8.4280   -0.9200 C   0  0  0  0  0  2  0  0  0  0  0  0
  -14.0950    8.9490   -0.0080 O   0  0  0  0  0  0  0  0  0  0  0  0
  -12.6200    9.3090   -0.4920 P   0  0  0  0  0  0  0  0  0  0  0  0
  -12.3570   10.6970   -0.0390 O   0  0  0  0  0  1  0  0  0  0  0  0
  -11.7170    8.3070    0.1330 O   0  0  0  0  0  1  0  0  0  0  0  0
  -12.4830    9.2550   -2.0020 O   0  0  0  0  0  0  0  0  0  0  0  0
  1 17  1  1  0  0  0
  1  2  1  0  0  0  0
  2  3  1  0  0  0  0
  3  4  1  6  0  0  0
  3  6  1  0  0  0  0
  5 15  1  1  0  0  0
  5  1  1  0  0  0  0
  5  4  1  0  0  0  0
  6  7  1  0  0  0  0
  6 13  1  0  0  0  0
  7  8  2  0  0  0  0
  8  9  1  0  0  0  0
  9 10  2  0  0  0  0
 11 12  1  0  0  0  0
 11  9  1  0  0  0  0
 13 11  1  0  0  0  0
 14 13  2  0  0  0  0
 16 15  1  0  0  0  0
 17 18  1  0  0  0  0
 19 20  1  0  0  0  0
 19 18  1  0  0  0  0
 19 21  1  0  0  0  0
 22 19  2  0  0  0  0
M  END
$$$$
output_dock/lig-dump-rec-1.all_poses.pdbqt
 OpenBabel06202210173D

 22 23  0  0  1  0  0  0  0  0999 V2000
    7.5490   12.3800   17.0740 C   0  0  1  0  0  3  0  0  0  0  0  0
    7.4830   10.9760   17.0690 O   0  0  0  0  0  0  0  0  0  0  0  0
    8.7200   10.5780   17.4830 C   0  0  2  0  0  3  0  0  0  0  0  0
    9.4140   11.5780   18.3620 C   0  0  0  0  0  2  0  0  0  0  0  0
    8.4570   12.7220   18.2830 C   0  0  2  0  0  3  0  0  0  0  0  0
    9.5420    9.6930   16.7210 N   0  0  0  0  0  0  0  0  0  0  0  0
   10.8880    9.9120   16.8010 C   0  0  0  0  0  3  0  0  0  0  0  0
   11.7620    9.0730   16.1310 C   0  0  0  0  0  3  0  0  0  0  0  0
   11.2440    7.9380   15.5350 C   0  0  0  0  0  0  0  0  0  0  0  0
   11.9900    7.1360   14.9470 O   0  0  0  0  0  0  0  0  0  0  0  0
    9.8780    7.7490   15.4640 N   0  0  0  0  0  0  0  0  0  0  0  0
    9.5210    7.0770   14.8120 H   0  0  0  0  0  0  0  0  0  0  0  0
    9.0230    8.5950   16.0970 C   0  0  0  0  0  0  0  0  0  0  0  0
    7.8060    8.3900   16.0450 O   0  0  0  0  0  0  0  0  0  0  0  0
    7.7370   12.7180   19.4850 O   0  0  0  0  0  0  0  0  0  0  0  0
    7.5830   13.6410   19.7740 H   0  0  0  0  0  0  0  0  0  0  0  0
    8.1020   12.8890   15.7430 C   0  0  0  0  0  2  0  0  0  0  0  0
    7.0610   13.2440   14.8490 O   0  0  0  0  0  0  0  0  0  0  0  0
    6.5350   14.7470   14.7730 P   0  0  0  0  0  0  0  0  0  0  0  0
    5.4730   14.8710   15.8010 O   0  0  0  0  0  1  0  0  0  0  0  0
    7.7120   15.6160   15.0390 O   0  0  0  0  0  1  0  0  0  0  0  0
    5.9420   15.0800   13.4170 O   0  0  0  0  0  0  0  0  0  0  0  0
  1 17  1  6  0  0  0
  1  5  1  0  0  0  0
  2  1  1  0  0  0  0
  2  3  1  0  0  0  0
  3  6  1  6  0  0  0
  3  4  1  0  0  0  0
  5  4  1  0  0  0  0
  5 15  1  1  0  0  0
  6  7  1  0  0  0  0
  8  7  2  0  0  0  0
  9  8  1  0  0  0  0
 10  9  2  0  0  0  0
 11  9  1  0  0  0  0
 11 13  1  0  0  0  0
 12 11  1  0  0  0  0
 13  6  1  0  0  0  0
 14 13  2  0  0  0  0
 15 16  1  0  0  0  0
 18 17  1  0  0  0  0
 19 18  1  0  0  0  0
 19 21  1  0  0  0  0
 19 20  1  0  0  0  0
 22 19  2  0  0  0  0
M  END
$$$$
output_dock/lig-dump-rec-1.all_poses.pdbqt
 OpenBabel06202210173D

 22 23  0  0  1  0  0  0  0  0999 V2000
   -7.5360   12.7610   17.5600 C   0  0  1  0  0  3  0  0  0  0  0  0
   -8.1730   13.6910   18.4010 O   0  0  0  0  0  0  0  0  0  0  0  0
   -9.4990   13.5520   18.1150 C   0  0  2  0  0  3  0  0  0  0  0  0
   -9.8690   12.1850   17.6140 C   0  0  0  0  0  2  0  0  0  0  0  0
   -8.5170   11.5630   17.4920 C   0  0  2  0  0  3  0  0  0  0  0  0
  -10.3190   14.6450   17.7020 N   0  0  0  0  0  0  0  0  0  0  0  0
  -10.1030   15.1100   16.4360 C   0  0  0  0  0  3  0  0  0  0  0  0
  -10.8840   16.1370   15.9380 C   0  0  0  0  0  3  0  0  0  0  0  0
  -11.9720   16.5470   16.6860 C   0  0  0  0  0  0  0  0  0  0  0  0
  -12.7240   17.4460   16.2690 O   0  0  0  0  0  0  0  0  0  0  0  0
  -12.1600   16.0640   17.9660 N   0  0  0  0  0  0  0  0  0  0  0  0
  -12.7800   16.5590   18.5780 H   0  0  0  0  0  0  0  0  0  0  0  0
  -11.3680   15.0770   18.4630 C   0  0  0  0  0  0  0  0  0  0  0  0
  -11.5730   14.6400   19.5990 O   0  0  0  0  0  0  0  0  0  0  0  0
   -8.3710   10.7140   18.5980 O   0  0  0  0  0  0  0  0  0  0  0  0
   -9.2450   10.3460   18.8410 H   0  0  0  0  0  0  0  0  0  0  0  0
   -7.2540   13.3880   16.1960 C   0  0  0  0  0  2  0  0  0  0  0  0
   -6.4300   14.5360   16.3100 O   0  0  0  0  0  0  0  0  0  0  0  0
   -6.4030   15.6320   15.1530 P   0  0  0  0  0  0  0  0  0  0  0  0
   -4.9740   15.9530   14.9130 O   0  0  0  0  0  1  0  0  0  0  0  0
   -7.0720   15.0170   13.9760 O   0  0  0  0  0  0  0  0  0  0  0  0
   -7.1270   16.9050   15.5520 O   0  0  0  0  0  1  0  0  0  0  0  0
  1 17  1  6  0  0  0
  1  2  1  0  0  0  0
  3  4  1  6  0  0  0
  3  2  1  0  0  0  0
  5  1  1  0  0  0  0
  5  4  1  0  0  0  0
  5 15  1  1  0  0  0
  6  3  1  0  0  0  0
  6 13  1  0  0  0  0
  7  6  1  0  0  0  0
  8  7  2  0  0  0  0
  8  9  1  0  0  0  0
  9 11  1  0  0  0  0
 10  9  2  0  0  0  0
 11 13  1  0  0  0  0
 11 12  1  0  0  0  0
 13 14  2  0  0  0  0
 15 16  1  0  0  0  0
 17 18  1  0  0  0  0
 19 22  1  0  0  0  0
 19 18  1  0  0  0  0
 20 19  1  0  0  0  0
 21 19  2  0  0  0  0
M  END
$$$$
output_dock/lig-dump-rec-1.all_poses.pdbqt
 OpenBabel06202210173D

 22 23  0  0  1  0  0  0  0  0999 V2000
  -16.3280    3.7150    8.1630 C   0  0  1  0  0  3  0  0  0  0  0  0
  -15.3390    4.6120    7.7230 O   0  0  0  0  0  0  0  0  0  0  0  0
  -16.0390    5.6880    7.2640 C   0  0  2  0  0  3  0  0  0  0  0  0
  -17.3770    5.8650    7.9220 C   0  0  0  0  0  2  0  0  0  0  0  0
  -17.4420    4.6210    8.7460 C   0  0  2  0  0  3  0  0  0  0  0  0
  -15.8870    6.2020    5.9400 N   0  0  0  0  0  0  0  0  0  0  0  0
  -15.9670    5.2850    4.9310 C   0  0  0  0  0  3  0  0  0  0  0  0
  -15.8770    5.7010    3.6140 C   0  0  0  0  0  3  0  0  0  0  0  0
  -15.8740    7.0610    3.3620 C   0  0  0  0  0  0  0  0  0  0  0  0
  -15.8250    7.4870    2.1950 O   0  0  0  0  0  0  0  0  0  0  0  0
  -15.7850    7.9620    4.4030 N   0  0  0  0  0  0  0  0  0  0  0  0
  -15.5190    8.9060    4.1980 H   0  0  0  0  0  0  0  0  0  0  0  0
  -15.8410    7.5440    5.6960 C   0  0  0  0  0  0  0  0  0  0  0  0
  -15.7890    8.3720    6.6110 O   0  0  0  0  0  0  0  0  0  0  0  0
  -17.1570    5.0050   10.0640 O   0  0  0  0  0  0  0  0  0  0  0  0
  -16.1870    5.0770   10.1780 H   0  0  0  0  0  0  0  0  0  0  0  0
  -16.8060    2.8440    7.0010 C   0  0  0  0  0  2  0  0  0  0  0  0
  -17.8590    1.9810    7.3960 O   0  0  0  0  0  0  0  0  0  0  0  0
  -18.3200    0.7810    6.4540 P   0  0  0  0  0  0  0  0  0  0  0  0
  -17.1680    0.4780    5.5690 O   0  0  0  0  0  0  0  0  0  0  0  0
  -18.6780   -0.3460    7.3550 O   0  0  0  0  0  1  0  0  0  0  0  0
  -19.5120    1.1540    5.5920 O   0  0  0  0  0  1  0  0  0  0  0  0
  1 17  1  6  0  0  0
  1  5  1  0  0  0  0
  2  1  1  0  0  0  0
  3  6  1  6  0  0  0
  3  2  1  0  0  0  0
  3  4  1  0  0  0  0
  4  5  1  0  0  0  0
  5 15  1  1  0  0  0
  7  6  1  0  0  0  0
  8  7  2  0  0  0  0
  9  8  1  0  0  0  0
  9 11  1  0  0  0  0
 10  9  2  0  0  0  0
 11 13  1  0  0  0  0
 12 11  1  0  0  0  0
 13  6  1  0  0  0  0
 13 14  2  0  0  0  0
 15 16  1  0  0  0  0
 17 18  1  0  0  0  0
 19 21  1  0  0  0  0
 19 18  1  0  0  0  0
 20 19  2  0  0  0  0
 22 19  1  0  0  0  0
M  END
$$$$
output_dock/lig-dump-rec-1.all_poses.pdbqt
 OpenBabel06202210173D

 22 23  0  0  1  0  0  0  0  0999 V2000
    5.9470   13.6770   16.9550 C   0  0  1  0  0  3  0  0  0  0  0  0
    5.5210   14.7060   17.8140 O   0  0  0  0  0  0  0  0  0  0  0  0
    5.7900   15.8520   17.1260 C   0  0  2  0  0  3  0  0  0  0  0  0
    5.7810   15.6790   15.6340 C   0  0  0  0  0  2  0  0  0  0  0  0
    5.6190   14.1980   15.5330 C   0  0  2  0  0  3  0  0  0  0  0  0
    6.5990   16.9010   17.6590 N   0  0  0  0  0  0  0  0  0  0  0  0
    7.8680   16.9880   17.1610 C   0  0  0  0  0  3  0  0  0  0  0  0
    8.7060   18.0030   17.5880 C   0  0  0  0  0  3  0  0  0  0  0  0
    8.1690   18.9970   18.3850 C   0  0  0  0  0  0  0  0  0  0  0  0
    8.8720   19.9470   18.7710 O   0  0  0  0  0  0  0  0  0  0  0  0
    6.8850   18.8760   18.8790 N   0  0  0  0  0  0  0  0  0  0  0  0
    6.6130   19.4540   19.6510 H   0  0  0  0  0  0  0  0  0  0  0  0
    6.0770   17.8580   18.4810 C   0  0  0  0  0  0  0  0  0  0  0  0
    4.9220   17.7870   18.9130 O   0  0  0  0  0  0  0  0  0  0  0  0
    4.2780   13.9690   15.1970 O   0  0  0  0  0  0  0  0  0  0  0  0
    3.7000   14.3830   15.8700 H   0  0  0  0  0  0  0  0  0  0  0  0
    7.4340   13.3930   17.1650 C   0  0  0  0  0  2  0  0  0  0  0  0
    7.9800   12.6510   16.0890 O   0  0  0  0  0  0  0  0  0  0  0  0
    9.3980   13.0400   15.4730 P   0  0  0  0  0  0  0  0  0  0  0  0
   10.4200   12.5060   16.4060 O   0  0  0  0  0  1  0  0  0  0  0  0
    9.4540   12.4190   14.1240 O   0  0  0  0  0  0  0  0  0  0  0  0
    9.5810   14.5420   15.3590 O   0  0  0  0  0  1  0  0  0  0  0  0
  1 17  1  6  0  0  0
  1  2  1  0  0  0  0
  3  4  1  6  0  0  0
  3  6  1  0  0  0  0
  3  2  1  0  0  0  0
  5 15  1  1  0  0  0
  5  4  1  0  0  0  0
  5  1  1  0  0  0  0
  6 13  1  0  0  0  0
  7  8  2  0  0  0  0
  7  6  1  0  0  0  0
  8  9  1  0  0  0  0
  9 10  2  0  0  0  0
  9 11  1  0  0  0  0
 11 12  1  0  0  0  0
 13 11  1  0  0  0  0
 13 14  2  0  0  0  0
 15 16  1  0  0  0  0
 18 17  1  0  0  0  0
 19 18  1  0  0  0  0
 19 20  1  0  0  0  0
 21 19  2  0  0  0  0
 22 19  1  0  0  0  0
M  END
$$$$
output_dock/lig-dump-rec-1.all_poses.pdbqt
 OpenBabel06202210173D

 22 23  0  0  1  0  0  0  0  0999 V2000
   -7.5430   13.3940   16.9290 C   0  0  1  0  0  3  0  0  0  0  0  0
   -8.1740   14.3720   17.7180 O   0  0  0  0  0  0  0  0  0  0  0  0
   -9.2950   13.7550   18.1880 C   0  0  2  0  0  3  0  0  0  0  0  0
   -9.1630   12.2630   18.2980 C   0  0  0  0  0  2  0  0  0  0  0  0
   -7.8260   12.0590   17.6650 C   0  0  2  0  0  3  0  0  0  0  0  0
  -10.6070   14.2830   17.9940 N   0  0  0  0  0  0  0  0  0  0  0  0
  -11.6180   13.3660   17.9340 C   0  0  0  0  0  3  0  0  0  0  0  0
  -12.9260   13.7930   17.7930 C   0  0  0  0  0  3  0  0  0  0  0  0
  -13.1810   15.1500   17.8850 C   0  0  0  0  0  0  0  0  0  0  0  0
  -14.3430   15.5820   17.7950 O   0  0  0  0  0  0  0  0  0  0  0  0
  -12.1370   16.0520   17.9360 N   0  0  0  0  0  0  0  0  0  0  0  0
  -12.3270   17.0150   17.7350 H   0  0  0  0  0  0  0  0  0  0  0  0
  -10.8500   15.6260   18.0410 C   0  0  0  0  0  0  0  0  0  0  0  0
   -9.9350   16.4520   18.1160 O   0  0  0  0  0  0  0  0  0  0  0  0
   -6.9200   11.8470   18.7130 O   0  0  0  0  0  0  0  0  0  0  0  0
   -6.2620   12.5710   18.7250 H   0  0  0  0  0  0  0  0  0  0  0  0
   -8.0940   13.4260   15.5050 C   0  0  0  0  0  2  0  0  0  0  0  0
   -9.2040   14.3010   15.3960 O   0  0  0  0  0  0  0  0  0  0  0  0
   -9.1380   15.5790   14.4450 P   0  0  0  0  0  0  0  0  0  0  0  0
   -8.3770   16.6130   15.1860 O   0  0  0  0  0  1  0  0  0  0  0  0
   -8.4640   15.1370   13.1950 O   0  0  0  0  0  0  0  0  0  0  0  0
  -10.5170   16.1250   14.1230 O   0  0  0  0  0  1  0  0  0  0  0  0
  1 17  1  6  0  0  0
  1  5  1  0  0  0  0
  1  2  1  0  0  0  0
  2  3  1  0  0  0  0
  3  6  1  6  0  0  0
  3  4  1  0  0  0  0
  5  4  1  0  0  0  0
  5 15  1  1  0  0  0
  6 13  1  0  0  0  0
  7  6  1  0  0  0  0
  8  9  1  0  0  0  0
  8  7  2  0  0  0  0
  9 11  1  0  0  0  0
 10  9  2  0  0  0  0
 11 13  1  0  0  0  0
 12 11  1  0  0  0  0
 13 14  2  0  0  0  0
 15 16  1  0  0  0  0
 18 17  1  0  0  0  0
 19 20  1  0  0  0  0
 19 18  1  0  0  0  0
 21 19  2  0  0  0  0
 22 19  1  0  0  0  0
M  END
$$$$
output_dock/lig-dump-rec-1.all_poses.pdbqt
 OpenBabel06202210173D

 22 23  0  0  1  0  0  0  0  0999 V2000
  -16.9230    3.6560    7.6240 C   0  0  1  0  0  3  0  0  0  0  0  0
  -18.0490    2.8600    7.8970 O   0  0  0  0  0  0  0  0  0  0  0  0
  -18.0610    1.9370    6.8930 C   0  0  2  0  0  3  0  0  0  0  0  0
  -16.7020    1.6480    6.3210 C   0  0  0  0  0  2  0  0  0  0  0  0
  -15.8820    2.6690    7.0380 C   0  0  2  0  0  3  0  0  0  0  0  0
  -19.1870    1.7400    6.0380 N   0  0  0  0  0  0  0  0  0  0  0  0
  -19.2380    2.5300    4.9250 C   0  0  0  0  0  3  0  0  0  0  0  0
  -20.2710    2.3750    4.0180 C   0  0  0  0  0  3  0  0  0  0  0  0
  -21.1300    1.3040    4.1880 C   0  0  0  0  0  0  0  0  0  0  0  0
  -22.0560    1.1020    3.3840 O   0  0  0  0  0  0  0  0  0  0  0  0
  -21.0580    0.5280    5.3280 N   0  0  0  0  0  0  0  0  0  0  0  0
  -21.8380   -0.0580    5.5580 H   0  0  0  0  0  0  0  0  0  0  0  0
  -20.0600    0.7080    6.2330 C   0  0  0  0  0  0  0  0  0  0  0  0
  -19.9980   -0.0180    7.2310 O   0  0  0  0  0  0  0  0  0  0  0  0
  -15.1940    1.9850    8.0490 O   0  0  0  0  0  0  0  0  0  0  0  0
  -15.3150    1.0210    7.9270 H   0  0  0  0  0  0  0  0  0  0  0  0
  -17.2940    4.7840    6.6620 C   0  0  0  0  0  2  0  0  0  0  0  0
  -16.1490    5.5020    6.2350 O   0  0  0  0  0  0  0  0  0  0  0  0
  -16.0690    7.0840    6.4150 P   0  0  0  0  0  0  0  0  0  0  0  0
  -15.0350    7.3360    7.4480 O   0  0  0  0  0  1  0  0  0  0  0  0
  -15.7150    7.6400    5.0830 O   0  0  0  0  0  0  0  0  0  0  0  0
  -17.3850    7.6730    6.8880 O   0  0  0  0  0  1  0  0  0  0  0  0
  1 17  1  6  0  0  0
  1  2  1  0  0  0  0
  3  6  1  6  0  0  0
  3  2  1  0  0  0  0
  4  3  1  0  0  0  0
  4  5  1  0  0  0  0
  5  1  1  0  0  0  0
  5 15  1  1  0  0  0
  6 13  1  0  0  0  0
  7  6  1  0  0  0  0
  8  9  1  0  0  0  0
  8  7  2  0  0  0  0
  9 11  1  0  0  0  0
 10  9  2  0  0  0  0
 11 12  1  0  0  0  0
 11 13  1  0  0  0  0
 13 14  2  0  0  0  0
 16 15  1  0  0  0  0
 18 19  1  0  0  0  0
 18 17  1  0  0  0  0
 19 22  1  0  0  0  0
 19 20  1  0  0  0  0
 21 19  2  0  0  0  0
M  END
$$$$
output_dock/lig-dump-rec-1.all_poses.pdbqt
 OpenBabel06202210173D

 22 23  0  0  1  0  0  0  0  0999 V2000
  -13.7460    6.2590    0.8080 C   0  0  1  0  0  3  0  0  0  0  0  0
  -13.8420    6.7010    2.1400 O   0  0  0  0  0  0  0  0  0  0  0  0
  -15.0550    6.2430    2.5610 C   0  0  2  0  0  3  0  0  0  0  0  0
  -15.5150    5.0050    1.8450 C   0  0  0  0  0  2  0  0  0  0  0  0
  -14.4510    4.8790    0.8060 C   0  0  2  0  0  3  0  0  0  0  0  0
  -16.0610    7.1010    3.0990 N   0  0  0  0  0  0  0  0  0  0  0  0
  -17.2010    7.2230    2.3570 C   0  0  0  0  0  3  0  0  0  0  0  0
  -18.2470    7.9990    2.8250 C   0  0  0  0  0  3  0  0  0  0  0  0
  -18.1630    8.4920    4.1150 C   0  0  0  0  0  0  0  0  0  0  0  0
  -19.0890    9.1690    4.5940 O   0  0  0  0  0  0  0  0  0  0  0  0
  -16.9940    8.3590    4.8370 N   0  0  0  0  0  0  0  0  0  0  0  0
  -16.8600    8.9400    5.6420 H   0  0  0  0  0  0  0  0  0  0  0  0
  -15.9560    7.6230    4.3560 C   0  0  0  0  0  0  0  0  0  0  0  0
  -14.9310    7.4930    5.0330 O   0  0  0  0  0  0  0  0  0  0  0  0
  -13.5920    3.8610    1.2410 O   0  0  0  0  0  0  0  0  0  0  0  0
  -13.6510    3.1010    0.6250 H   0  0  0  0  0  0  0  0  0  0  0  0
  -14.3980    7.2710   -0.1330 C   0  0  0  0  0  2  0  0  0  0  0  0
  -14.0540    8.6020    0.2130 O   0  0  0  0  0  0  0  0  0  0  0  0
  -12.7100    9.2600   -0.3360 P   0  0  0  0  0  0  0  0  0  0  0  0
  -11.5930    8.5680    0.3520 O   0  0  0  0  0  1  0  0  0  0  0  0
  -12.7120    9.0520   -1.8080 O   0  0  0  0  0  0  0  0  0  0  0  0
  -12.6290   10.7430   -0.0250 O   0  0  0  0  0  1  0  0  0  0  0  0
  1 17  1  6  0  0  0
  1  2  1  0  0  0  0
  2  3  1  0  0  0  0
  3  4  1  6  0  0  0
  3  6  1  0  0  0  0
  5  1  1  0  0  0  0
  5 15  1  1  0  0  0
  5  4  1  0  0  0  0
  6 13  1  0  0  0  0
  7  8  2  0  0  0  0
  7  6  1  0  0  0  0
  8  9  1  0  0  0  0
  9 10  2  0  0  0  0
  9 11  1  0  0  0  0
 11 12  1  0  0  0  0
 13 11  1  0  0  0  0
 13 14  2  0  0  0  0
 16 15  1  0  0  0  0
 17 18  1  0  0  0  0
 19 22  1  0  0  0  0
 19 18  1  0  0  0  0
 19 20  1  0  0  0  0
 21 19  2  0  0  0  0
M  END
$$$$
output_dock/lig-dump-rec-1.all_poses.pdbqt
 OpenBabel06202210173D

 22 23  0  0  1  0  0  0  0  0999 V2000
    9.3600   12.4190   17.0000 C   0  0  1  0  0  3  0  0  0  0  0  0
   10.0640   13.1120   15.9990 O   0  0  0  0  0  0  0  0  0  0  0  0
   10.7350   14.0890   16.6740 C   0  0  2  0  0  3  0  0  0  0  0  0
   11.0430   13.7350   18.1010 C   0  0  0  0  0  2  0  0  0  0  0  0
   10.3050   12.4440   18.2280 C   0  0  2  0  0  3  0  0  0  0  0  0
   10.6100   15.4750   16.3540 N   0  0  0  0  0  0  0  0  0  0  0  0
    9.5600   16.1290   16.9330 C   0  0  0  0  0  3  0  0  0  0  0  0
    9.3890   17.4840   16.7140 C   0  0  0  0  0  3  0  0  0  0  0  0
   10.3900   18.1660   16.0460 C   0  0  0  0  0  0  0  0  0  0  0  0
   10.3000   19.3900   15.8510 O   0  0  0  0  0  0  0  0  0  0  0  0
   11.4350   17.4750   15.4660 N   0  0  0  0  0  0  0  0  0  0  0  0
   11.9920   17.9410   14.7750 H   0  0  0  0  0  0  0  0  0  0  0  0
   11.5790   16.1370   15.6570 C   0  0  0  0  0  0  0  0  0  0  0  0
   12.5390   15.5450   15.1520 O   0  0  0  0  0  0  0  0  0  0  0  0
   11.2690   11.4290   18.1560 O   0  0  0  0  0  0  0  0  0  0  0  0
   12.1580   11.8320   18.0790 H   0  0  0  0  0  0  0  0  0  0  0  0
    8.0130   13.0930   17.2620 C   0  0  0  0  0  2  0  0  0  0  0  0
    6.9810   12.1390   17.4440 O   0  0  0  0  0  0  0  0  0  0  0  0
    6.1640   12.0800   18.8120 P   0  0  0  0  0  0  0  0  0  0  0  0
    7.0680   12.6090   19.8620 O   0  0  0  0  0  1  0  0  0  0  0  0
    4.9490   12.9130   18.6110 O   0  0  0  0  0  0  0  0  0  0  0  0
    5.7640   10.6630   19.1800 O   0  0  0  0  0  1  0  0  0  0  0  0
  1 17  1  1  0  0  0
  1  5  1  0  0  0  0
  2  3  1  0  0  0  0
  2  1  1  0  0  0  0
  3  6  1  1  0  0  0
  3  4  1  0  0  0  0
  4  5  1  0  0  0  0
  5 15  1  6  0  0  0
  6  7  1  0  0  0  0
  8  7  2  0  0  0  0
  9  8  1  0  0  0  0
 10  9  2  0  0  0  0
 11 13  1  0  0  0  0
 11  9  1  0  0  0  0
 12 11  1  0  0  0  0
 13  6  1  0  0  0  0
 14 13  2  0  0  0  0
 16 15  1  0  0  0  0
 17 18  1  0  0  0  0
 18 19  1  0  0  0  0
 19 22  1  0  0  0  0
 19 20  1  0  0  0  0
 21 19  2  0  0  0  0
M  END
$$$$
output_dock/lig-dump-rec-1.all_poses.pdbqt
 OpenBabel06202210173D

 22 23  0  0  1  0  0  0  0  0999 V2000
  -17.3100    5.9550   -4.1580 C   0  0  1  0  0  3  0  0  0  0  0  0
  -17.2700    6.4940   -2.8600 O   0  0  0  0  0  0  0  0  0  0  0  0
  -16.7630    7.7480   -3.0300 C   0  0  2  0  0  3  0  0  0  0  0  0
  -17.0400    8.3330   -4.3860 C   0  0  0  0  0  2  0  0  0  0  0  0
  -17.6620    7.1590   -5.0670 C   0  0  2  0  0  3  0  0  0  0  0  0
  -15.6020    8.2140   -2.3400 N   0  0  0  0  0  0  0  0  0  0  0  0
  -14.5630    8.6190   -3.1270 C   0  0  0  0  0  3  0  0  0  0  0  0
  -13.4160    9.1270   -2.5440 C   0  0  0  0  0  3  0  0  0  0  0  0
  -13.4300    9.3610   -1.1800 C   0  0  0  0  0  0  0  0  0  0  0  0
  -12.4360    9.8450   -0.6120 O   0  0  0  0  0  0  0  0  0  0  0  0
  -14.4920    8.9320   -0.4110 N   0  0  0  0  0  0  0  0  0  0  0  0
  -14.3700    8.8680    0.5810 H   0  0  0  0  0  0  0  0  0  0  0  0
  -15.6040    8.4030   -0.9880 C   0  0  0  0  0  0  0  0  0  0  0  0
  -16.5550    8.0530   -0.2820 O   0  0  0  0  0  0  0  0  0  0  0  0
  -19.0420    7.4020   -5.0900 O   0  0  0  0  0  0  0  0  0  0  0  0
  -19.3880    7.3940   -4.1730 H   0  0  0  0  0  0  0  0  0  0  0  0
  -15.9680    5.3100   -4.5040 C   0  0  0  0  0  2  0  0  0  0  0  0
  -15.8770    5.0060   -5.8850 O   0  0  0  0  0  0  0  0  0  0  0  0
  -15.9480    3.4950   -6.3890 P   0  0  0  0  0  0  0  0  0  0  0  0
  -16.9510    2.8150   -5.5330 O   0  0  0  0  0  1  0  0  0  0  0  0
  -16.3390    3.5490   -7.8220 O   0  0  0  0  0  0  0  0  0  0  0  0
  -14.6180    2.7800   -6.2430 O   0  0  0  0  0  1  0  0  0  0  0  0
  1 17  1  6  0  0  0
  1  2  1  0  0  0  0
  3  4  1  6  0  0  0
  3  2  1  0  0  0  0
  3  6  1  0  0  0  0
  5 15  1  1  0  0  0
  5  4  1  0  0  0  0
  5  1  1  0  0  0  0
  6 13  1  0  0  0  0
  7  8  2  0  0  0  0
  7  6  1  0  0  0  0
  8  9  1  0  0  0  0
  9 10  2  0  0  0  0
  9 11  1  0  0  0  0
 11 12  1  0  0  0  0
 13 11  1  0  0  0  0
 13 14  2  0  0  0  0
 15 16  1  0  0  0  0
 18 17  1  0  0  0  0
 19 22  1  0  0  0  0
 19 18  1  0  0  0  0
 19 20  1  0  0  0  0
 21 19  2  0  0  0  0
M  END
$$$$
output_dock/lig-dump-rec-1.all_poses.pdbqt
 OpenBabel06202210173D

 22 23  0  0  1  0  0  0  0  0999 V2000
    8.6260   15.7230   17.3830 C   0  0  1  0  0  3  0  0  0  0  0  0
    7.8580   14.5450   17.3970 O   0  0  0  0  0  0  0  0  0  0  0  0
    8.5260   13.7160   18.2480 C   0  0  2  0  0  3  0  0  0  0  0  0
    9.3300   14.4400   19.2900 C   0  0  0  0  0  2  0  0  0  0  0  0
    9.1660   15.8510   18.8300 C   0  0  2  0  0  3  0  0  0  0  0  0
    8.9670   12.4110   17.8700 N   0  0  0  0  0  0  0  0  0  0  0  0
   10.3180   12.2460   17.7620 C   0  0  0  0  0  3  0  0  0  0  0  0
   10.8350   11.0020   17.4440 C   0  0  0  0  0  3  0  0  0  0  0  0
    9.9660    9.9270   17.4090 C   0  0  0  0  0  0  0  0  0  0  0  0
   10.3850    8.7840   17.1590 O   0  0  0  0  0  0  0  0  0  0  0  0
    8.6040   10.1280   17.5140 N   0  0  0  0  0  0  0  0  0  0  0  0
    7.9880    9.3930   17.2250 H   0  0  0  0  0  0  0  0  0  0  0  0
    8.1000   11.3590   17.7940 C   0  0  0  0  0  0  0  0  0  0  0  0
    6.8800   11.5100   17.9120 O   0  0  0  0  0  0  0  0  0  0  0  0
    8.2220   16.4370   19.6830 O   0  0  0  0  0  0  0  0  0  0  0  0
    7.8210   17.2130   19.2390 H   0  0  0  0  0  0  0  0  0  0  0  0
    9.7320   15.6210   16.3330 C   0  0  0  0  0  2  0  0  0  0  0  0
   10.3970   16.8590   16.1550 O   0  0  0  0  0  0  0  0  0  0  0  0
   11.9860   16.9180   16.0500 P   0  0  0  0  0  0  0  0  0  0  0  0
   12.5100   16.4080   17.3410 O   0  0  0  0  0  1  0  0  0  0  0  0
   12.3620   16.0690   14.8890 O   0  0  0  0  0  0  0  0  0  0  0  0
   12.4950   18.3320   15.8430 O   0  0  0  0  0  1  0  0  0  0  0  0
  1 17  1  6  0  0  0
  1  2  1  0  0  0  0
  1  5  1  0  0  0  0
  2  3  1  0  0  0  0
  3  6  1  6  0  0  0
  3  4  1  0  0  0  0
  5  4  1  0  0  0  0
  5 15  1  1  0  0  0
  7  6  1  0  0  0  0
  8  7  2  0  0  0  0
  9  8  1  0  0  0  0
  9 11  1  0  0  0  0
 10  9  2  0  0  0  0
 11 13  1  0  0  0  0
 12 11  1  0  0  0  0
 13  6  1  0  0  0  0
 13 14  2  0  0  0  0
 16 15  1  0  0  0  0
 18 17  1  0  0  0  0
 19 18  1  0  0  0  0
 19 20  1  0  0  0  0
 21 19  2  0  0  0  0
 22 19  1  0  0  0  0
M  END
$$$$
output_dock/lig-dump-rec-1.all_poses.pdbqt
 OpenBabel06202210173D

 22 23  0  0  1  0  0  0  0  0999 V2000
   -7.7730   14.0280   14.4610 C   0  0  1  0  0  3  0  0  0  0  0  0
   -9.0810   13.5110   14.4820 O   0  0  0  0  0  0  0  0  0  0  0  0
   -9.8800   14.6150   14.4630 C   0  0  2  0  0  3  0  0  0  0  0  0
   -9.2490   15.8070   13.8020 C   0  0  0  0  0  2  0  0  0  0  0  0
   -7.8690   15.2890   13.5650 C   0  0  2  0  0  3  0  0  0  0  0  0
  -10.8760   14.8660   15.4550 N   0  0  0  0  0  0  0  0  0  0  0  0
  -10.9000   13.9990   16.5100 C   0  0  0  0  0  3  0  0  0  0  0  0
  -11.8030   14.1940   17.5400 C   0  0  0  0  0  3  0  0  0  0  0  0
  -12.5410   15.3640   17.5440 C   0  0  0  0  0  0  0  0  0  0  0  0
  -13.3430   15.6020   18.4640 O   0  0  0  0  0  0  0  0  0  0  0  0
  -12.5000   16.2170   16.4590 N   0  0  0  0  0  0  0  0  0  0  0  0
  -13.2240   16.9030   16.3630 H   0  0  0  0  0  0  0  0  0  0  0  0
  -11.6340   16.0010   15.4340 C   0  0  0  0  0  0  0  0  0  0  0  0
  -11.5950   16.7940   14.4880 O   0  0  0  0  0  0  0  0  0  0  0  0
   -7.7980   14.9620   12.2050 O   0  0  0  0  0  0  0  0  0  0  0  0
   -8.6270   15.2360   11.7610 H   0  0  0  0  0  0  0  0  0  0  0  0
   -7.3010   14.3320   15.8820 C   0  0  0  0  0  2  0  0  0  0  0  0
   -6.9430   13.1490   16.5760 O   0  0  0  0  0  0  0  0  0  0  0  0
   -7.7340   12.7080   17.8880 P   0  0  0  0  0  0  0  0  0  0  0  0
   -8.3000   13.9490   18.4730 O   0  0  0  0  0  1  0  0  0  0  0  0
   -8.7730   11.7410   17.4460 O   0  0  0  0  0  0  0  0  0  0  0  0
   -6.8250   12.0570   18.9140 O   0  0  0  0  0  1  0  0  0  0  0  0
  1  2  1  0  0  0  0
  1 17  1  1  0  0  0
  3  4  1  1  0  0  0
  3  2  1  0  0  0  0
  3  6  1  0  0  0  0
  5 15  1  6  0  0  0
  5  4  1  0  0  0  0
  5  1  1  0  0  0  0
  6  7  1  0  0  0  0
  7  8  2  0  0  0  0
  8  9  1  0  0  0  0
  9 10  2  0  0  0  0
 11  9  1  0  0  0  0
 12 11  1  0  0  0  0
 13  6  1  0  0  0  0
 13 11  1  0  0  0  0
 14 13  2  0  0  0  0
 16 15  1  0  0  0  0
 17 18  1  0  0  0  0
 18 19  1  0  0  0  0
 19 20  1  0  0  0  0
 19 22  1  0  0  0  0
 21 19  2  0  0  0  0
M  END
$$$$
output_dock/lig-dump-rec-1.all_poses.pdbqt
 OpenBabel06202210173D

 22 23  0  0  1  0  0  0  0  0999 V2000
   10.0170   10.4950   17.7810 C   0  0  1  0  0  3  0  0  0  0  0  0
    9.8530   10.9470   19.1020 O   0  0  0  0  0  0  0  0  0  0  0  0
    8.5030   11.0580   19.2560 C   0  0  2  0  0  3  0  0  0  0  0  0
    7.7160   10.1300   18.3750 C   0  0  0  0  0  2  0  0  0  0  0  0
    8.8110    9.5500   17.5420 C   0  0  2  0  0  3  0  0  0  0  0  0
    7.8670   12.2690   19.6650 N   0  0  0  0  0  0  0  0  0  0  0  0
    6.7610   12.6340   18.9510 C   0  0  0  0  0  3  0  0  0  0  0  0
    6.0570   13.7700   19.3070 C   0  0  0  0  0  3  0  0  0  0  0  0
    6.4060   14.4090   20.4830 C   0  0  0  0  0  0  0  0  0  0  0  0
    5.7850   15.4170   20.8630 O   0  0  0  0  0  0  0  0  0  0  0  0
    7.5340   14.0220   21.1770 N   0  0  0  0  0  0  0  0  0  0  0  0
    7.9140   14.6490   21.8600 H   0  0  0  0  0  0  0  0  0  0  0  0
    8.2420   12.9230   20.8030 C   0  0  0  0  0  0  0  0  0  0  0  0
    9.2310   12.5780   21.4580 O   0  0  0  0  0  0  0  0  0  0  0  0
    9.0540    8.2660   18.0480 O   0  0  0  0  0  0  0  0  0  0  0  0
    9.3920    8.3370   18.9650 H   0  0  0  0  0  0  0  0  0  0  0  0
   10.0550   11.6800   16.8170 C   0  0  0  0  0  2  0  0  0  0  0  0
    9.3360   11.4060   15.6260 O   0  0  0  0  0  0  0  0  0  0  0  0
    8.2750   12.4530   15.0620 P   0  0  0  0  0  0  0  0  0  0  0  0
    8.7660   13.7980   15.4510 O   0  0  0  0  0  1  0  0  0  0  0  0
    8.2270   12.2490   13.5900 O   0  0  0  0  0  0  0  0  0  0  0  0
    6.8940   12.2470   15.6570 O   0  0  0  0  0  1  0  0  0  0  0  0
  1 17  1  6  0  0  0
  1  2  1  0  0  0  0
  2  3  1  0  0  0  0
  3  4  1  6  0  0  0
  3  6  1  0  0  0  0
  5  1  1  0  0  0  0
  5 15  1  1  0  0  0
  5  4  1  0  0  0  0
  6 13  1  0  0  0  0
  7  8  2  0  0  0  0
  7  6  1  0  0  0  0
  8  9  1  0  0  0  0
  9 10  2  0  0  0  0
  9 11  1  0  0  0  0
 11 12  1  0  0  0  0
 13 11  1  0  0  0  0
 13 14  2  0  0  0  0
 15 16  1  0  0  0  0
 18 17  1  0  0  0  0
 19 20  1  0  0  0  0
 19 18  1  0  0  0  0
 19 22  1  0  0  0  0
 21 19  2  0  0  0  0
M  END
$$$$
output_dock/lig-dump-rec-1.all_poses.pdbqt
 OpenBabel06202210173D

 22 23  0  0  1  0  0  0  0  0999 V2000
  -16.9580    8.2100   -3.0850 C   0  0  1  0  0  3  0  0  0  0  0  0
  -16.1920    8.9830   -2.1950 O   0  0  0  0  0  0  0  0  0  0  0  0
  -14.9310    8.4770   -2.3070 C   0  0  2  0  0  3  0  0  0  0  0  0
  -14.6470    7.8520   -3.6420 C   0  0  0  0  0  2  0  0  0  0  0  0
  -16.0010    7.9190   -4.2690 C   0  0  2  0  0  3  0  0  0  0  0  0
  -14.1890    7.9950   -1.1860 N   0  0  0  0  0  0  0  0  0  0  0  0
  -14.4810    6.7240   -0.7800 C   0  0  0  0  0  3  0  0  0  0  0  0
  -13.7780    6.1590    0.2700 C   0  0  0  0  0  3  0  0  0  0  0  0
  -12.6860    6.8480    0.7660 C   0  0  0  0  0  0  0  0  0  0  0  0
  -12.0030    6.3710    1.6880 O   0  0  0  0  0  0  0  0  0  0  0  0
  -12.4220    8.1350    0.3400 N   0  0  0  0  0  0  0  0  0  0  0  0
  -11.8070    8.7040    0.8890 H   0  0  0  0  0  0  0  0  0  0  0  0
  -13.1380    8.6970   -0.6700 C   0  0  0  0  0  0  0  0  0  0  0  0
  -12.8650    9.8380   -1.0540 O   0  0  0  0  0  0  0  0  0  0  0  0
  -15.9630    8.9870   -5.1750 O   0  0  0  0  0  0  0  0  0  0  0  0
  -15.7880    8.6430   -6.0750 H   0  0  0  0  0  0  0  0  0  0  0  0
  -17.4590    6.9450   -2.3900 C   0  0  0  0  0  2  0  0  0  0  0  0
  -18.8580    6.7830   -2.5480 O   0  0  0  0  0  0  0  0  0  0  0  0
  -19.4550    6.1490   -3.8830 P   0  0  0  0  0  0  0  0  0  0  0  0
  -18.3970    5.2700   -4.4390 O   0  0  0  0  0  1  0  0  0  0  0  0
  -20.6820    5.4090   -3.4840 O   0  0  0  0  0  1  0  0  0  0  0  0
  -19.8020    7.2060   -4.9150 O   0  0  0  0  0  0  0  0  0  0  0  0
  1 17  1  1  0  0  0
  1  2  1  0  0  0  0
  3  4  1  6  0  0  0
  3  2  1  0  0  0  0
  3  6  1  0  0  0  0
  5 15  1  6  0  0  0
  5  4  1  0  0  0  0
  5  1  1  0  0  0  0
  6  7  1  0  0  0  0
  6 13  1  0  0  0  0
  7  8  2  0  0  0  0
  8  9  1  0  0  0  0
  9 10  2  0  0  0  0
 11  9  1  0  0  0  0
 11 12  1  0  0  0  0
 13 11  1  0  0  0  0
 14 13  2  0  0  0  0
 16 15  1  0  0  0  0
 18 17  1  0  0  0  0
 19 21  1  0  0  0  0
 19 18  1  0  0  0  0
 20 19  1  0  0  0  0
 22 19  2  0  0  0  0
M  END
$$$$
output_dock/lig-dump-rec-1.all_poses.pdbqt
 OpenBabel06202210173D

 22 23  0  0  1  0  0  0  0  0999 V2000
  -13.8770    6.2990   -0.4760 C   0  0  1  0  0  3  0  0  0  0  0  0
  -13.5510    7.0730    0.6510 O   0  0  0  0  0  0  0  0  0  0  0  0
  -14.1590    6.4320    1.6890 C   0  0  2  0  0  3  0  0  0  0  0  0
  -14.3450    4.9590    1.4640 C   0  0  0  0  0  2  0  0  0  0  0  0
  -13.8920    4.8400    0.0460 C   0  0  2  0  0  3  0  0  0  0  0  0
  -15.0790    7.0820    2.5670 N   0  0  0  0  0  0  0  0  0  0  0  0
  -16.3550    6.5960    2.5600 C   0  0  0  0  0  3  0  0  0  0  0  0
  -17.3020    7.1370    3.4120 C   0  0  0  0  0  3  0  0  0  0  0  0
  -16.8750    8.0440    4.3650 C   0  0  0  0  0  0  0  0  0  0  0  0
  -17.6790    8.5370    5.1750 O   0  0  0  0  0  0  0  0  0  0  0  0
  -15.5800    8.5220    4.3410 N   0  0  0  0  0  0  0  0  0  0  0  0
  -15.3670    9.3560    4.8540 H   0  0  0  0  0  0  0  0  0  0  0  0
  -14.6620    8.0100    3.4770 C   0  0  0  0  0  0  0  0  0  0  0  0
  -13.5020    8.4320    3.4940 O   0  0  0  0  0  0  0  0  0  0  0  0
  -12.6010    4.2950    0.0880 O   0  0  0  0  0  0  0  0  0  0  0  0
  -12.1790    4.5270    0.9410 H   0  0  0  0  0  0  0  0  0  0  0  0
  -15.2200    6.7450   -1.0540 C   0  0  0  0  0  2  0  0  0  0  0  0
  -15.1310    6.9930   -2.4470 O   0  0  0  0  0  0  0  0  0  0  0  0
  -15.3410    8.4640   -3.0240 P   0  0  0  0  0  0  0  0  0  0  0  0
  -14.3400    9.3250   -2.3470 O   0  0  0  0  0  1  0  0  0  0  0  0
  -15.1360    8.3710   -4.4930 O   0  0  0  0  0  0  0  0  0  0  0  0
  -16.7270    9.0030   -2.7290 O   0  0  0  0  0  1  0  0  0  0  0  0
  1 17  1  1  0  0  0
  1  5  1  0  0  0  0
  1  2  1  0  0  0  0
  2  3  1  0  0  0  0
  3  4  1  6  0  0  0
  3  6  1  0  0  0  0
  5 15  1  1  0  0  0
  5  4  1  0  0  0  0
  6 13  1  0  0  0  0
  7  6  1  0  0  0  0
  7  8  2  0  0  0  0
  8  9  1  0  0  0  0
  9 10  2  0  0  0  0
 11  9  1  0  0  0  0
 11 12  1  0  0  0  0
 13 14  2  0  0  0  0
 13 11  1  0  0  0  0
 15 16  1  0  0  0  0
 18 17  1  0  0  0  0
 19 22  1  0  0  0  0
 19 18  1  0  0  0  0
 19 20  1  0  0  0  0
 21 19  2  0  0  0  0
M  END
$$$$
output_dock/lig-dump-rec-1.all_poses.pdbqt
 OpenBabel06202210173D

 22 23  0  0  1  0  0  0  0  0999 V2000
  -17.5040    3.9240    6.5470 C   0  0  1  0  0  3  0  0  0  0  0  0
  -17.6000    2.6680    5.9220 O   0  0  0  0  0  0  0  0  0  0  0  0
  -16.4320    2.0420    6.2420 C   0  0  2  0  0  3  0  0  0  0  0  0
  -15.8290    2.5110    7.5340 C   0  0  0  0  0  2  0  0  0  0  0  0
  -16.7430    3.6430    7.8670 C   0  0  2  0  0  3  0  0  0  0  0  0
  -15.5430    1.5140    5.2570 N   0  0  0  0  0  0  0  0  0  0  0  0
  -14.3250    2.1240    5.1650 C   0  0  0  0  0  3  0  0  0  0  0  0
  -13.3830    1.6490    4.2680 C   0  0  0  0  0  3  0  0  0  0  0  0
  -13.6540    0.4630    3.6110 C   0  0  0  0  0  0  0  0  0  0  0  0
  -12.8280   -0.0230    2.8180 O   0  0  0  0  0  0  0  0  0  0  0  0
  -14.8980   -0.1250    3.7180 N   0  0  0  0  0  0  0  0  0  0  0  0
  -15.1600   -0.8180    3.0430 H   0  0  0  0  0  0  0  0  0  0  0  0
  -15.8310    0.3660    4.5770 C   0  0  0  0  0  0  0  0  0  0  0  0
  -16.9270   -0.1950    4.6780 O   0  0  0  0  0  0  0  0  0  0  0  0
  -17.6050    3.1740    8.8680 O   0  0  0  0  0  0  0  0  0  0  0  0
  -17.2480    2.3400    9.2390 H   0  0  0  0  0  0  0  0  0  0  0  0
  -16.7830    4.9150    5.6340 C   0  0  0  0  0  2  0  0  0  0  0  0
  -17.1860    6.2490    5.8910 O   0  0  0  0  0  0  0  0  0  0  0  0
  -16.1450    7.4500    5.7630 P   0  0  0  0  0  0  0  0  0  0  0  0
  -16.9110    8.6150    5.2580 O   0  0  0  0  0  1  0  0  0  0  0  0
  -15.5820    7.6630    7.1230 O   0  0  0  0  0  1  0  0  0  0  0  0
  -15.0290    7.1380    4.7840 O   0  0  0  0  0  0  0  0  0  0  0  0
  1 17  1  6  0  0  0
  1  5  1  0  0  0  0
  2  3  1  0  0  0  0
  2  1  1  0  0  0  0
  3  6  1  6  0  0  0
  3  4  1  0  0  0  0
  4  5  1  0  0  0  0
  5 15  1  1  0  0  0
  7  6  1  0  0  0  0
  8  7  2  0  0  0  0
  9 11  1  0  0  0  0
  9  8  1  0  0  0  0
 10  9  2  0  0  0  0
 11 13  1  0  0  0  0
 12 11  1  0  0  0  0
 13 14  2  0  0  0  0
 13  6  1  0  0  0  0
 15 16  1  0  0  0  0
 17 18  1  0  0  0  0
 19 18  1  0  0  0  0
 19 21  1  0  0  0  0
 20 19  1  0  0  0  0
 22 19  2  0  0  0  0
M  END
$$$$
output_dock/lig-dump-rec-1.all_poses.pdbqt
 OpenBabel06202210173D

 22 23  0  0  1  0  0  0  0  0999 V2000
  -10.1860   14.5890   15.7400 C   0  0  1  0  0  3  0  0  0  0  0  0
   -9.7200   15.6410   14.9320 O   0  0  0  0  0  0  0  0  0  0  0  0
   -8.4050   15.3490   14.7230 C   0  0  2  0  0  3  0  0  0  0  0  0
   -8.0940   13.8810   14.7930 C   0  0  0  0  0  2  0  0  0  0  0  0
   -9.4130   13.3430   15.2400 C   0  0  2  0  0  3  0  0  0  0  0  0
   -7.3510   16.2580   15.0400 N   0  0  0  0  0  0  0  0  0  0  0  0
   -7.7230   17.4000   15.6910 C   0  0  0  0  0  3  0  0  0  0  0  0
   -6.7600   18.3160   16.0770 C   0  0  0  0  0  3  0  0  0  0  0  0
   -5.4310   17.9610   15.9330 C   0  0  0  0  0  0  0  0  0  0  0  0
   -4.5280   18.7360   16.2930 O   0  0  0  0  0  0  0  0  0  0  0  0
   -5.0880   16.8040   15.2630 N   0  0  0  0  0  0  0  0  0  0  0  0
   -4.1450   16.7000   14.9400 H   0  0  0  0  0  0  0  0  0  0  0  0
   -6.0400   15.9230   14.8570 C   0  0  0  0  0  0  0  0  0  0  0  0
   -5.7070   14.8800   14.2850 O   0  0  0  0  0  0  0  0  0  0  0  0
  -10.0150   12.7830   14.1050 O   0  0  0  0  0  0  0  0  0  0  0  0
   -9.9010   13.3890   13.3450 H   0  0  0  0  0  0  0  0  0  0  0  0
   -9.9350   14.9030   17.2150 C   0  0  0  0  0  2  0  0  0  0  0  0
   -9.3930   13.7870   17.9000 O   0  0  0  0  0  0  0  0  0  0  0  0
  -10.2750   12.9750   18.9510 P   0  0  0  0  0  0  0  0  0  0  0  0
   -9.5700   13.0730   20.2530 O   0  0  0  0  0  1  0  0  0  0  0  0
  -11.6150   13.6190   18.9600 O   0  0  0  0  0  1  0  0  0  0  0  0
  -10.4080   11.5110   18.5780 O   0  0  0  0  0  0  0  0  0  0  0  0
  1 17  1  1  0  0  0
  2  1  1  0  0  0  0
  3  4  1  1  0  0  0
  3  2  1  0  0  0  0
  3  6  1  0  0  0  0
  4  5  1  0  0  0  0
  5 15  1  6  0  0  0
  5  1  1  0  0  0  0
  6  7  1  0  0  0  0
  7  8  2  0  0  0  0
  9  8  1  0  0  0  0
  9 10  2  0  0  0  0
 11  9  1  0  0  0  0
 12 11  1  0  0  0  0
 13  6  1  0  0  0  0
 13 11  1  0  0  0  0
 14 13  2  0  0  0  0
 16 15  1  0  0  0  0
 17 18  1  0  0  0  0
 18 19  1  0  0  0  0
 19 21  1  0  0  0  0
 19 20  1  0  0  0  0
 22 19  2  0  0  0  0
M  END
$$$$
output_dock/lig-dump-rec-1.all_poses.pdbqt
 OpenBabel06202210173D

 22 23  0  0  1  0  0  0  0  0999 V2000
    7.6540   12.5730   17.8670 C   0  0  1  0  0  3  0  0  0  0  0  0
    9.0430   12.7880   17.8270 O   0  0  0  0  0  0  0  0  0  0  0  0
    9.1840   14.1260   18.0440 C   0  0  2  0  0  3  0  0  0  0  0  0
    8.0660   14.7300   18.8450 C   0  0  0  0  0  2  0  0  0  0  0  0
    7.1390   13.5630   18.9420 C   0  0  2  0  0  3  0  0  0  0  0  0
    9.8830   14.9860   17.1440 N   0  0  0  0  0  0  0  0  0  0  0  0
    9.1050   15.7400   16.3120 C   0  0  0  0  0  3  0  0  0  0  0  0
    9.6980   16.6350   15.4390 C   0  0  0  0  0  3  0  0  0  0  0  0
   11.0590   16.8530   15.5570 C   0  0  0  0  0  0  0  0  0  0  0  0
   11.6350   17.6690   14.8170 O   0  0  0  0  0  0  0  0  0  0  0  0
   11.8190   16.0680   16.4010 N   0  0  0  0  0  0  0  0  0  0  0  0
   12.8140   16.0580   16.2780 H   0  0  0  0  0  0  0  0  0  0  0  0
   11.2340   15.1670   17.2340 C   0  0  0  0  0  0  0  0  0  0  0  0
   11.9320   14.4980   18.0020 O   0  0  0  0  0  0  0  0  0  0  0  0
    7.2900   13.0450   20.2350 O   0  0  0  0  0  0  0  0  0  0  0  0
    8.2430   12.9230   20.4260 H   0  0  0  0  0  0  0  0  0  0  0  0
    7.0420   12.8090   16.4860 C   0  0  0  0  0  2  0  0  0  0  0  0
    5.7130   13.2930   16.5820 O   0  0  0  0  0  0  0  0  0  0  0  0
    5.2140   14.4800   15.6410 P   0  0  0  0  0  0  0  0  0  0  0  0
    3.9120   14.0480   15.0770 O   0  0  0  0  0  1  0  0  0  0  0  0
    5.1070   15.6840   16.5070 O   0  0  0  0  0  1  0  0  0  0  0  0
    6.1750   14.7490   14.4980 O   0  0  0  0  0  0  0  0  0  0  0  0
  1 17  1  6  0  0  0
  1  5  1  0  0  0  0
  2  1  1  0  0  0  0
  2  3  1  0  0  0  0
  3  6  1  6  0  0  0
  3  4  1  0  0  0  0
  4  5  1  0  0  0  0
  5 15  1  1  0  0  0
  6 13  1  0  0  0  0
  7  6  1  0  0  0  0
  8  9  1  0  0  0  0
  8  7  2  0  0  0  0
  9 11  1  0  0  0  0
 10  9  2  0  0  0  0
 11 13  1  0  0  0  0
 12 11  1  0  0  0  0
 13 14  2  0  0  0  0
 15 16  1  0  0  0  0
 17 18  1  0  0  0  0
 19 21  1  0  0  0  0
 19 18  1  0  0  0  0
 20 19  1  0  0  0  0
 22 19  2  0  0  0  0
M  END
$$$$
output_dock/lig-dump-rec-1.all_poses.pdbqt
 OpenBabel06202210173D

 22 23  0  0  1  0  0  0  0  0999 V2000
  -15.6940    7.6000    4.6420 C   0  0  1  0  0  3  0  0  0  0  0  0
  -16.7240    8.5480    4.5120 O   0  0  0  0  0  0  0  0  0  0  0  0
  -17.7960    7.9670    5.1220 C   0  0  2  0  0  3  0  0  0  0  0  0
  -17.4220    6.9840    6.1950 C   0  0  0  0  0  2  0  0  0  0  0  0
  -15.9390    6.9470    6.0250 C   0  0  2  0  0  3  0  0  0  0  0  0
  -19.0490    7.7730    4.4640 N   0  0  0  0  0  0  0  0  0  0  0  0
  -19.2150    6.5700    3.8400 C   0  0  0  0  0  3  0  0  0  0  0  0
  -20.4160    6.2790    3.2160 C   0  0  0  0  0  3  0  0  0  0  0  0
  -21.4680    7.1590    3.3910 C   0  0  0  0  0  0  0  0  0  0  0  0
  -22.5770    6.9290    2.8770 O   0  0  0  0  0  0  0  0  0  0  0  0
  -21.2660    8.3710    4.0200 N   0  0  0  0  0  0  0  0  0  0  0  0
  -21.9530    9.0910    3.9040 H   0  0  0  0  0  0  0  0  0  0  0  0
  -20.0730    8.6650    4.6030 C   0  0  0  0  0  0  0  0  0  0  0  0
  -19.9240    9.7430    5.1860 O   0  0  0  0  0  0  0  0  0  0  0  0
  -15.4030    7.7210    7.0630 O   0  0  0  0  0  0  0  0  0  0  0  0
  -14.4560    7.8950    6.8830 H   0  0  0  0  0  0  0  0  0  0  0  0
  -15.7450    6.6020    3.4850 C   0  0  0  0  0  2  0  0  0  0  0  0
  -14.4730    6.4380    2.8820 O   0  0  0  0  0  0  0  0  0  0  0  0
  -13.9100    7.5320    1.8680 P   0  0  0  0  0  0  0  0  0  0  0  0
  -12.7090    6.9360    1.2340 O   0  0  0  0  0  1  0  0  0  0  0  0
  -15.0060    7.8110    0.9020 O   0  0  0  0  0  0  0  0  0  0  0  0
  -13.5040    8.8130    2.5730 O   0  0  0  0  0  1  0  0  0  0  0  0
  1 17  1  6  0  0  0
  1  5  1  0  0  0  0
  2  1  1  0  0  0  0
  2  3  1  0  0  0  0
  3  6  1  6  0  0  0
  3  4  1  0  0  0  0
  5  4  1  0  0  0  0
  5 15  1  1  0  0  0
  6 13  1  0  0  0  0
  7  6  1  0  0  0  0
  8  9  1  0  0  0  0
  8  7  2  0  0  0  0
  9 11  1  0  0  0  0
 10  9  2  0  0  0  0
 11 13  1  0  0  0  0
 12 11  1  0  0  0  0
 13 14  2  0  0  0  0
 16 15  1  0  0  0  0
 18 17  1  0  0  0  0
 19 22  1  0  0  0  0
 19 18  1  0  0  0  0
 20 19  1  0  0  0  0
 21 19  2  0  0  0  0
M  END
$$$$
output_dock/lig-dump-rec-1.all_poses.pdbqt
 OpenBabel06202210173D

 22 23  0  0  1  0  0  0  0  0999 V2000
  -14.1660    7.5510    0.8660 C   0  0  1  0  0  3  0  0  0  0  0  0
  -14.2070    6.7240   -0.2700 O   0  0  0  0  0  0  0  0  0  0  0  0
  -14.2530    7.5940   -1.3190 C   0  0  2  0  0  3  0  0  0  0  0  0
  -13.6200    8.9240   -1.0290 C   0  0  0  0  0  2  0  0  0  0  0  0
  -13.3220    8.7740    0.4260 C   0  0  2  0  0  3  0  0  0  0  0  0
  -15.2840    7.5600   -2.3060 N   0  0  0  0  0  0  0  0  0  0  0  0
  -15.1510    8.4430   -3.3390 C   0  0  0  0  0  3  0  0  0  0  0  0
  -16.0800    8.4480   -4.3640 C   0  0  0  0  0  3  0  0  0  0  0  0
  -17.0260    7.4390   -4.3880 C   0  0  0  0  0  0  0  0  0  0  0  0
  -17.8650    7.3810   -5.3040 O   0  0  0  0  0  0  0  0  0  0  0  0
  -17.1410    6.5670   -3.3250 N   0  0  0  0  0  0  0  0  0  0  0  0
  -17.9810    6.0280   -3.2360 H   0  0  0  0  0  0  0  0  0  0  0  0
  -16.2440    6.5890   -2.3030 C   0  0  0  0  0  0  0  0  0  0  0  0
  -16.3490    5.7790   -1.3770 O   0  0  0  0  0  0  0  0  0  0  0  0
  -11.9480    8.5150    0.5240 O   0  0  0  0  0  0  0  0  0  0  0  0
  -11.7810    7.9440    1.3010 H   0  0  0  0  0  0  0  0  0  0  0  0
  -15.5830    7.9210    1.3030 C   0  0  0  0  0  2  0  0  0  0  0  0
  -15.9330    7.2900    2.5230 O   0  0  0  0  0  0  0  0  0  0  0  0
  -15.6560    8.0130    3.9170 P   0  0  0  0  0  0  0  0  0  0  0  0
  -14.6950    9.1080    3.6370 O   0  0  0  0  0  0  0  0  0  0  0  0
  -16.9730    8.5000    4.4050 O   0  0  0  0  0  1  0  0  0  0  0  0
  -15.0420    7.0740    4.9380 O   0  0  0  0  0  1  0  0  0  0  0  0
  1 17  1  6  0  0  0
  2  1  1  0  0  0  0
  3  6  1  1  0  0  0
  3  4  1  0  0  0  0
  3  2  1  0  0  0  0
  4  5  1  0  0  0  0
  5 15  1  6  0  0  0
  5  1  1  0  0  0  0
  6 13  1  0  0  0  0
  7  6  1  0  0  0  0
  8  7  2  0  0  0  0
  9  8  1  0  0  0  0
  9 11  1  0  0  0  0
 10  9  2  0  0  0  0
 11 12  1  0  0  0  0
 11 13  1  0  0  0  0
 13 14  2  0  0  0  0
 15 16  1  0  0  0  0
 17 18  1  0  0  0  0
 18 19  1  0  0  0  0
 19 21  1  0  0  0  0
 19 22  1  0  0  0  0
 20 19  2  0  0  0  0
M  END
$$$$
output_dock/lig-dump-rec-1.all_poses.pdbqt
 OpenBabel06202210173D

 22 23  0  0  1  0  0  0  0  0999 V2000
   10.5440   12.0200   16.5950 C   0  0  1  0  0  3  0  0  0  0  0  0
    9.5120   12.3690   17.4850 O   0  0  0  0  0  0  0  0  0  0  0  0
    8.3730   11.9570   16.8600 C   0  0  2  0  0  3  0  0  0  0  0  0
    8.5830   10.8050   15.9190 C   0  0  0  0  0  2  0  0  0  0  0  0
   10.0710   10.6900   15.9560 C   0  0  2  0  0  3  0  0  0  0  0  0
    7.2790   12.8350   16.5880 N   0  0  0  0  0  0  0  0  0  0  0  0
    7.0300   13.0870   15.2690 C   0  0  0  0  0  3  0  0  0  0  0  0
    5.9610   13.8900   14.9130 C   0  0  0  0  0  3  0  0  0  0  0  0
    5.0800   14.2770   15.9060 C   0  0  0  0  0  0  0  0  0  0  0  0
    4.0860   14.9730   15.6340 O   0  0  0  0  0  0  0  0  0  0  0  0
    5.3640   14.0130   17.2310 N   0  0  0  0  0  0  0  0  0  0  0  0
    4.8670   14.5200   17.9380 H   0  0  0  0  0  0  0  0  0  0  0  0
    6.4350   13.2510   17.5770 C   0  0  0  0  0  0  0  0  0  0  0  0
    6.6530   13.0030   18.7670 O   0  0  0  0  0  0  0  0  0  0  0  0
   10.3610    9.5920   16.7770 O   0  0  0  0  0  0  0  0  0  0  0  0
   11.0170    9.8580   17.4540 H   0  0  0  0  0  0  0  0  0  0  0  0
   10.7620   13.1360   15.5740 C   0  0  0  0  0  2  0  0  0  0  0  0
   10.3870   14.4000   16.0950 O   0  0  0  0  0  0  0  0  0  0  0  0
   11.4890   15.5140   16.3870 P   0  0  0  0  0  0  0  0  0  0  0  0
   12.0360   15.2200   17.7350 O   0  0  0  0  0  1  0  0  0  0  0  0
   12.5020   15.3970   15.3050 O   0  0  0  0  0  0  0  0  0  0  0  0
   10.9010   16.9130   16.3950 O   0  0  0  0  0  1  0  0  0  0  0  0
  1 17  1  6  0  0  0
  1  2  1  0  0  0  0
  3  4  1  6  0  0  0
  3  2  1  0  0  0  0
  4  5  1  0  0  0  0
  5  1  1  0  0  0  0
  5 15  1  1  0  0  0
  6  3  1  0  0  0  0
  6 13  1  0  0  0  0
  7  6  1  0  0  0  0
  8  7  2  0  0  0  0
  8  9  1  0  0  0  0
  9 11  1  0  0  0  0
 10  9  2  0  0  0  0
 11 13  1  0  0  0  0
 11 12  1  0  0  0  0
 13 14  2  0  0  0  0
 15 16  1  0  0  0  0
 17 18  1  0  0  0  0
 18 19  1  0  0  0  0
 19 22  1  0  0  0  0
 19 20  1  0  0  0  0
 21 19  2  0  0  0  0
M  END
$$$$
output_dock/lig-dump-rec-1.all_poses.pdbqt
 OpenBabel06202210173D

 22 23  0  0  1  0  0  0  0  0999 V2000
    7.4380   12.1650   17.1500 C   0  0  1  0  0  3  0  0  0  0  0  0
    7.9000   12.9310   18.2330 O   0  0  0  0  0  0  0  0  0  0  0  0
    8.1740   14.1520   17.6910 C   0  0  2  0  0  3  0  0  0  0  0  0
    7.3540   14.4700   16.4740 C   0  0  0  0  0  2  0  0  0  0  0  0
    6.6480   13.1690   16.2720 C   0  0  2  0  0  3  0  0  0  0  0  0
    9.4520   14.7790   17.8020 N   0  0  0  0  0  0  0  0  0  0  0  0
   10.1330   14.9560   16.6310 C   0  0  0  0  0  3  0  0  0  0  0  0
   11.3610   15.5960   16.6400 C   0  0  0  0  0  3  0  0  0  0  0  0
   11.7780   16.1830   17.8200 C   0  0  0  0  0  0  0  0  0  0  0  0
   12.8590   16.7960   17.8740 O   0  0  0  0  0  0  0  0  0  0  0  0
   11.0720   15.9780   18.9890 N   0  0  0  0  0  0  0  0  0  0  0  0
   11.5210   16.1800   19.8610 H   0  0  0  0  0  0  0  0  0  0  0  0
    9.8820   15.3200   18.9790 C   0  0  0  0  0  0  0  0  0  0  0  0
    9.2530   15.1750   20.0320 O   0  0  0  0  0  0  0  0  0  0  0  0
    5.3420   13.3510   16.7450 O   0  0  0  0  0  0  0  0  0  0  0  0
    5.1630   14.3090   16.8430 H   0  0  0  0  0  0  0  0  0  0  0  0
    8.6140   11.5190   16.4180 C   0  0  0  0  0  2  0  0  0  0  0  0
    8.1820   10.7800   15.2880 O   0  0  0  0  0  0  0  0  0  0  0  0
    8.4640    9.2140   15.1870 P   0  0  0  0  0  0  0  0  0  0  0  0
    9.9210    9.0370   15.4050 O   0  0  0  0  0  1  0  0  0  0  0  0
    7.6310    8.5700   16.2360 O   0  0  0  0  0  1  0  0  0  0  0  0
    8.1040    8.6540   13.8240 O   0  0  0  0  0  0  0  0  0  0  0  0
  1 17  1  6  0  0  0
  1  2  1  0  0  0  0
  3  4  1  6  0  0  0
  3  6  1  0  0  0  0
  3  2  1  0  0  0  0
  5  4  1  0  0  0  0
  5 15  1  1  0  0  0
  5  1  1  0  0  0  0
  6 13  1  0  0  0  0
  7  8  2  0  0  0  0
  7  6  1  0  0  0  0
  8  9  1  0  0  0  0
  9 10  2  0  0  0  0
  9 11  1  0  0  0  0
 11 12  1  0  0  0  0
 13 11  1  0  0  0  0
 13 14  2  0  0  0  0
 15 16  1  0  0  0  0
 18 17  1  0  0  0  0
 19 18  1  0  0  0  0
 19 20  1  0  0  0  0
 19 21  1  0  0  0  0
 22 19  2  0  0  0  0
M  END
$$$$
output_dock/lig-dump-rec-1.all_poses.pdbqt
 OpenBabel06202210173D

 22 23  0  0  1  0  0  0  0  0999 V2000
   -9.7580   14.1000   15.2450 C   0  0  1  0  0  3  0  0  0  0  0  0
   -8.6720   14.3950   14.4010 O   0  0  0  0  0  0  0  0  0  0  0  0
   -7.6130   14.5310   15.2490 C   0  0  2  0  0  3  0  0  0  0  0  0
   -7.7520   13.7450   16.5210 C   0  0  0  0  0  2  0  0  0  0  0  0
   -9.1470   13.2330   16.3750 C   0  0  2  0  0  3  0  0  0  0  0  0
   -6.8020   15.7060   15.2900 N   0  0  0  0  0  0  0  0  0  0  0  0
   -5.5420   15.5790   14.7770 C   0  0  0  0  0  3  0  0  0  0  0  0
   -4.7030   16.6790   14.7350 C   0  0  0  0  0  3  0  0  0  0  0  0
   -5.2330   17.9130   15.0660 C   0  0  0  0  0  0  0  0  0  0  0  0
   -4.5300   18.9370   15.0160 O   0  0  0  0  0  0  0  0  0  0  0  0
   -6.5070   18.0060   15.5900 N   0  0  0  0  0  0  0  0  0  0  0  0
   -6.7690   18.8500   16.0640 H   0  0  0  0  0  0  0  0  0  0  0  0
   -7.3150   16.9150   15.6600 C   0  0  0  0  0  0  0  0  0  0  0  0
   -8.4620   17.0290   16.1050 O   0  0  0  0  0  0  0  0  0  0  0  0
   -9.0370   11.8900   15.9910 O   0  0  0  0  0  0  0  0  0  0  0  0
   -9.3970   11.7800   15.0870 H   0  0  0  0  0  0  0  0  0  0  0  0
  -10.3980   15.3910   15.7540 C   0  0  0  0  0  2  0  0  0  0  0  0
  -10.7700   15.2860   17.1170 O   0  0  0  0  0  0  0  0  0  0  0  0
  -12.3080   15.2470   17.5360 P   0  0  0  0  0  0  0  0  0  0  0  0
  -12.3360   15.1960   19.0180 O   0  0  0  0  0  1  0  0  0  0  0  0
  -12.9250   16.4800   16.9800 O   0  0  0  0  0  0  0  0  0  0  0  0
  -13.0200   14.0220   16.9930 O   0  0  0  0  0  1  0  0  0  0  0  0
  1 17  1  1  0  0  0
  1  5  1  0  0  0  0
  2  1  1  0  0  0  0
  2  3  1  0  0  0  0
  3  6  1  1  0  0  0
  3  4  1  0  0  0  0
  5 15  1  6  0  0  0
  5  4  1  0  0  0  0
  6 13  1  0  0  0  0
  7  6  1  0  0  0  0
  8  7  2  0  0  0  0
  8  9  1  0  0  0  0
  9 11  1  0  0  0  0
 10  9  2  0  0  0  0
 11 13  1  0  0  0  0
 11 12  1  0  0  0  0
 13 14  2  0  0  0  0
 16 15  1  0  0  0  0
 17 18  1  0  0  0  0
 18 19  1  0  0  0  0
 19 20  1  0  0  0  0
 21 19  2  0  0  0  0
 22 19  1  0  0  0  0
M  END
$$$$
output_dock/lig-dump-rec-1.all_poses.pdbqt
 OpenBabel06202210173D

 22 23  0  0  1  0  0  0  0  0999 V2000
    8.3350   13.2920   16.7650 C   0  0  1  0  0  3  0  0  0  0  0  0
    9.6110   12.8570   16.3670 O   0  0  0  0  0  0  0  0  0  0  0  0
    9.3880   11.6470   15.7790 C   0  0  2  0  0  3  0  0  0  0  0  0
    8.0150   11.5090   15.1840 C   0  0  0  0  0  2  0  0  0  0  0  0
    7.3860   12.7800   15.6510 C   0  0  2  0  0  3  0  0  0  0  0  0
   10.0440   10.4500   16.1980 N   0  0  0  0  0  0  0  0  0  0  0  0
    9.3910    9.2830   15.9190 C   0  0  0  0  0  3  0  0  0  0  0  0
    9.9760    8.0730   16.2490 C   0  0  0  0  0  3  0  0  0  0  0  0
   11.2820    8.0850   16.7030 C   0  0  0  0  0  0  0  0  0  0  0  0
   11.8640    7.0230   16.9840 O   0  0  0  0  0  0  0  0  0  0  0  0
   11.9110    9.2820   16.9830 N   0  0  0  0  0  0  0  0  0  0  0  0
   12.7370    9.2670   17.5500 H   0  0  0  0  0  0  0  0  0  0  0  0
   11.3180   10.4690   16.6870 C   0  0  0  0  0  0  0  0  0  0  0  0
   11.9130   11.5260   16.9190 O   0  0  0  0  0  0  0  0  0  0  0  0
    7.3740   13.6440   14.5470 O   0  0  0  0  0  0  0  0  0  0  0  0
    7.7420   13.1790   13.7680 H   0  0  0  0  0  0  0  0  0  0  0  0
    7.9950   12.7400   18.1480 C   0  0  0  0  0  2  0  0  0  0  0  0
    8.2400   13.6960   19.1650 O   0  0  0  0  0  0  0  0  0  0  0  0
    7.0350   14.3050   20.0130 P   0  0  0  0  0  0  0  0  0  0  0  0
    7.1630   13.7490   21.3820 O   0  0  0  0  0  1  0  0  0  0  0  0
    7.1920   15.7830   19.9620 O   0  0  0  0  0  1  0  0  0  0  0  0
    5.6820   13.9100   19.4510 O   0  0  0  0  0  0  0  0  0  0  0  0
  1 17  1  1  0  0  0
  2  1  1  0  0  0  0
  3  4  1  1  0  0  0
  3  6  1  0  0  0  0
  3  2  1  0  0  0  0
  4  5  1  0  0  0  0
  5 15  1  6  0  0  0
  5  1  1  0  0  0  0
  6 13  1  0  0  0  0
  7  6  1  0  0  0  0
  7  8  2  0  0  0  0
  8  9  1  0  0  0  0
  9 11  1  0  0  0  0
  9 10  2  0  0  0  0
 11 12  1  0  0  0  0
 13 14  2  0  0  0  0
 13 11  1  0  0  0  0
 16 15  1  0  0  0  0
 17 18  1  0  0  0  0
 18 19  1  0  0  0  0
 19 20  1  0  0  0  0
 21 19  1  0  0  0  0
 22 19  2  0  0  0  0
M  END
$$$$
output_dock/lig-dump-rec-1.all_poses.pdbqt
 OpenBabel06202210173D

 22 23  0  0  1  0  0  0  0  0999 V2000
    8.3820   12.6910   16.3150 C   0  0  1  0  0  3  0  0  0  0  0  0
    7.2870   12.8360   17.1850 O   0  0  0  0  0  0  0  0  0  0  0  0
    7.6160   13.9030   17.9670 C   0  0  2  0  0  3  0  0  0  0  0  0
    8.5460   14.8770   17.3020 C   0  0  0  0  0  2  0  0  0  0  0  0
    8.8540   14.1410   16.0400 C   0  0  2  0  0  3  0  0  0  0  0  0
    7.6500   13.8350   19.3930 N   0  0  0  0  0  0  0  0  0  0  0  0
    8.8890   13.8910   19.9640 C   0  0  0  0  0  3  0  0  0  0  0  0
    9.0130   13.8770   21.3420 C   0  0  0  0  0  3  0  0  0  0  0  0
    7.8590   13.9730   22.0990 C   0  0  0  0  0  0  0  0  0  0  0  0
    7.9170   13.9950   23.3400 O   0  0  0  0  0  0  0  0  0  0  0  0
    6.6210   13.9050   21.4920 N   0  0  0  0  0  0  0  0  0  0  0  0
    5.8190   13.7100   22.0610 H   0  0  0  0  0  0  0  0  0  0  0  0
    6.5070   13.8860   20.1380 C   0  0  0  0  0  0  0  0  0  0  0  0
    5.3870   13.8550   19.6170 O   0  0  0  0  0  0  0  0  0  0  0  0
    8.0930   14.7480   15.0320 O   0  0  0  0  0  0  0  0  0  0  0  0
    7.7690   15.6160   15.3490 H   0  0  0  0  0  0  0  0  0  0  0  0
    9.4580   11.8190   16.9620 C   0  0  0  0  0  2  0  0  0  0  0  0
   10.0550   10.9440   16.0200 O   0  0  0  0  0  0  0  0  0  0  0  0
   10.9020    9.6840   16.5070 P   0  0  0  0  0  0  0  0  0  0  0  0
   10.0790    8.9990   17.5330 O   0  0  0  0  0  1  0  0  0  0  0  0
   11.1460    8.8520   15.3000 O   0  0  0  0  0  0  0  0  0  0  0  0
   12.2240   10.0890   17.1320 O   0  0  0  0  0  1  0  0  0  0  0  0
  1 17  1  1  0  0  0
  1  2  1  0  0  0  0
  2  3  1  0  0  0  0
  3  4  1  6  0  0  0
  3  6  1  0  0  0  0
  5 15  1  6  0  0  0
  5  1  1  0  0  0  0
  5  4  1  0  0  0  0
  6  7  1  0  0  0  0
  6 13  1  0  0  0  0
  7  8  2  0  0  0  0
  8  9  1  0  0  0  0
  9 10  2  0  0  0  0
 11 12  1  0  0  0  0
 11  9  1  0  0  0  0
 13 11  1  0  0  0  0
 14 13  2  0  0  0  0
 15 16  1  0  0  0  0
 18 19  1  0  0  0  0
 18 17  1  0  0  0  0
 19 22  1  0  0  0  0
 19 20  1  0  0  0  0
 21 19  2  0  0  0  0
M  END
$$$$
output_dock/lig-dump-rec-1.all_poses.pdbqt
 OpenBabel06202210173D

 22 23  0  0  1  0  0  0  0  0999 V2000
  -16.9950    8.4710    3.8040 C   0  0  1  0  0  3  0  0  0  0  0  0
  -17.0150    8.2770    5.1970 O   0  0  0  0  0  0  0  0  0  0  0  0
  -16.3210    7.1190    5.3860 C   0  0  2  0  0  3  0  0  0  0  0  0
  -15.3030    6.8430    4.3160 C   0  0  0  0  0  2  0  0  0  0  0  0
  -15.6070    7.9470    3.3590 C   0  0  2  0  0  3  0  0  0  0  0  0
  -16.8660    5.9950    6.0780 N   0  0  0  0  0  0  0  0  0  0  0  0
  -17.0340    4.8610    5.3360 C   0  0  0  0  0  3  0  0  0  0  0  0
  -17.5140    3.7110    5.9370 C   0  0  0  0  0  3  0  0  0  0  0  0
  -17.6510    3.7060    7.3130 C   0  0  0  0  0  0  0  0  0  0  0  0
  -18.0490    2.6880    7.9050 O   0  0  0  0  0  0  0  0  0  0  0  0
  -17.4820    4.8710    8.0340 N   0  0  0  0  0  0  0  0  0  0  0  0
  -17.8380    4.9100    8.9700 H   0  0  0  0  0  0  0  0  0  0  0  0
  -17.0410    6.0070    7.4320 C   0  0  0  0  0  0  0  0  0  0  0  0
  -16.8690    7.0300    8.1030 O   0  0  0  0  0  0  0  0  0  0  0  0
  -14.6080    8.9130    3.5410 O   0  0  0  0  0  0  0  0  0  0  0  0
  -14.7540    9.6520    2.9150 H   0  0  0  0  0  0  0  0  0  0  0  0
  -18.1590    7.7280    3.1500 C   0  0  0  0  0  2  0  0  0  0  0  0
  -19.4020    8.1010    3.7200 O   0  0  0  0  0  0  0  0  0  0  0  0
  -20.7550    7.4070    3.2400 P   0  0  0  0  0  0  0  0  0  0  0  0
  -20.5930    5.9540    3.4920 O   0  0  0  0  0  1  0  0  0  0  0  0
  -21.8480    8.0230    4.0380 O   0  0  0  0  0  1  0  0  0  0  0  0
  -21.0130    7.6190    1.7600 O   0  0  0  0  0  0  0  0  0  0  0  0
  1 17  1  6  0  0  0
  1  2  1  0  0  0  0
  2  3  1  0  0  0  0
  3  4  1  6  0  0  0
  3  6  1  0  0  0  0
  5 15  1  1  0  0  0
  5  1  1  0  0  0  0
  5  4  1  0  0  0  0
  6 13  1  0  0  0  0
  7  8  2  0  0  0  0
  7  6  1  0  0  0  0
  8  9  1  0  0  0  0
  9 10  2  0  0  0  0
  9 11  1  0  0  0  0
 11 12  1  0  0  0  0
 13 11  1  0  0  0  0
 13 14  2  0  0  0  0
 16 15  1  0  0  0  0
 17 18  1  0  0  0  0
 19 20  1  0  0  0  0
 19 18  1  0  0  0  0
 19 21  1  0  0  0  0
 22 19  2  0  0  0  0
M  END
$$$$
output_dock/lig-dump-rec-1.all_poses.pdbqt
 OpenBabel06202210173D

 22 23  0  0  1  0  0  0  0  0999 V2000
   -8.4160   13.8000   15.3270 C   0  0  1  0  0  3  0  0  0  0  0  0
   -8.1840   12.7860   16.2730 O   0  0  0  0  0  0  0  0  0  0  0  0
   -9.3420   12.7230   16.9910 C   0  0  2  0  0  3  0  0  0  0  0  0
  -10.5550   13.1630   16.2210 C   0  0  0  0  0  2  0  0  0  0  0  0
   -9.9170   13.6570   14.9650 C   0  0  2  0  0  3  0  0  0  0  0  0
   -9.3800   12.8640   18.4110 N   0  0  0  0  0  0  0  0  0  0  0  0
  -10.6160   12.7840   18.9860 C   0  0  0  0  0  3  0  0  0  0  0  0
  -10.7420   12.8650   20.3620 C   0  0  0  0  0  3  0  0  0  0  0  0
   -9.5850   12.8590   21.1210 C   0  0  0  0  0  0  0  0  0  0  0  0
   -9.6430   12.8990   22.3620 O   0  0  0  0  0  0  0  0  0  0  0  0
   -8.3500   12.9490   20.5100 N   0  0  0  0  0  0  0  0  0  0  0  0
   -7.5590   13.2080   21.0660 H   0  0  0  0  0  0  0  0  0  0  0  0
   -8.2360   12.9020   19.1560 C   0  0  0  0  0  0  0  0  0  0  0  0
   -7.1190   12.9540   18.6320 O   0  0  0  0  0  0  0  0  0  0  0  0
  -10.1220   12.6630   14.0000 O   0  0  0  0  0  0  0  0  0  0  0  0
  -10.4670   13.0730   13.1800 H   0  0  0  0  0  0  0  0  0  0  0  0
   -8.0650   15.1650   15.9170 C   0  0  0  0  0  2  0  0  0  0  0  0
   -6.6630   15.3540   15.9940 O   0  0  0  0  0  0  0  0  0  0  0  0
   -5.9980   16.7090   15.4810 P   0  0  0  0  0  0  0  0  0  0  0  0
   -5.2270   17.2560   16.6240 O   0  0  0  0  0  1  0  0  0  0  0  0
   -5.1440   16.3430   14.3200 O   0  0  0  0  0  0  0  0  0  0  0  0
   -7.0350   17.7320   15.0580 O   0  0  0  0  0  1  0  0  0  0  0  0
  1 17  1  1  0  0  0
  1  2  1  0  0  0  0
  2  3  1  0  0  0  0
  3  4  1  6  0  0  0
  3  6  1  0  0  0  0
  5 15  1  6  0  0  0
  5  1  1  0  0  0  0
  5  4  1  0  0  0  0
  6  7  1  0  0  0  0
  6 13  1  0  0  0  0
  7  8  2  0  0  0  0
  8  9  1  0  0  0  0
  9 10  2  0  0  0  0
 11 12  1  0  0  0  0
 11  9  1  0  0  0  0
 13 11  1  0  0  0  0
 14 13  2  0  0  0  0
 16 15  1  0  0  0  0
 17 18  1  0  0  0  0
 19 18  1  0  0  0  0
 19 20  1  0  0  0  0
 21 19  2  0  0  0  0
 22 19  1  0  0  0  0
M  END
$$$$
output_dock/lig-dump-rec-1.all_poses.pdbqt
 OpenBabel06202210173D

 22 23  0  0  1  0  0  0  0  0999 V2000
  -15.4880    5.7050   -0.0340 C   0  0  1  0  0  3  0  0  0  0  0  0
  -15.0520    5.1450    1.1800 O   0  0  0  0  0  0  0  0  0  0  0  0
  -16.0960    5.3350    2.0350 C   0  0  2  0  0  3  0  0  0  0  0  0
  -17.4310    5.4110    1.3510 C   0  0  0  0  0  2  0  0  0  0  0  0
  -17.0060    5.3960   -0.0800 C   0  0  2  0  0  3  0  0  0  0  0  0
  -15.9600    6.0150    3.2830 N   0  0  0  0  0  0  0  0  0  0  0  0
  -16.2320    7.3530    3.2660 C   0  0  0  0  0  3  0  0  0  0  0  0
  -16.1690    8.0820    4.4410 C   0  0  0  0  0  3  0  0  0  0  0  0
  -15.9920    7.3910    5.6260 C   0  0  0  0  0  0  0  0  0  0  0  0
  -15.9590    7.9960    6.7110 O   0  0  0  0  0  0  0  0  0  0  0  0
  -15.7100    6.0400    5.6080 N   0  0  0  0  0  0  0  0  0  0  0  0
  -15.3280    5.6200    6.4340 H   0  0  0  0  0  0  0  0  0  0  0  0
  -15.7410    5.3350    4.4460 C   0  0  0  0  0  0  0  0  0  0  0  0
  -15.5150    4.1210    4.4590 O   0  0  0  0  0  0  0  0  0  0  0  0
  -17.2530    4.0990   -0.5520 O   0  0  0  0  0  0  0  0  0  0  0  0
  -16.8850    4.0070   -1.4550 H   0  0  0  0  0  0  0  0  0  0  0  0
  -15.1760    7.2010   -0.0680 C   0  0  0  0  0  2  0  0  0  0  0  0
  -13.8690    7.4500   -0.5530 O   0  0  0  0  0  0  0  0  0  0  0  0
  -12.7150    7.9340    0.4350 P   0  0  0  0  0  0  0  0  0  0  0  0
  -11.9650    6.7170    0.8310 O   0  0  0  0  0  1  0  0  0  0  0  0
  -11.8910    8.9080   -0.3270 O   0  0  0  0  0  0  0  0  0  0  0  0
  -13.2700    8.5920    1.6850 O   0  0  0  0  0  1  0  0  0  0  0  0
  1 17  1  1  0  0  0
  1  2  1  0  0  0  0
  2  3  1  0  0  0  0
  3  4  1  6  0  0  0
  3  6  1  0  0  0  0
  5 15  1  1  0  0  0
  5  1  1  0  0  0  0
  5  4  1  0  0  0  0
  6 13  1  0  0  0  0
  7  6  1  0  0  0  0
  7  8  2  0  0  0  0
  8  9  1  0  0  0  0
  9 10  2  0  0  0  0
 11  9  1  0  0  0  0
 11 12  1  0  0  0  0
 13 14  2  0  0  0  0
 13 11  1  0  0  0  0
 16 15  1  0  0  0  0
 18 17  1  0  0  0  0
 18 19  1  0  0  0  0
 19 20  1  0  0  0  0
 19 22  1  0  0  0  0
 21 19  2  0  0  0  0
M  END
$$$$
output_dock/lig-dump-rec-1.all_poses.pdbqt
 OpenBabel06202210173D

 22 23  0  0  1  0  0  0  0  0999 V2000
    7.1200   11.2340   18.5730 C   0  0  1  0  0  3  0  0  0  0  0  0
    7.3560   11.9770   17.4040 O   0  0  0  0  0  0  0  0  0  0  0  0
    8.7020   11.8830   17.2090 C   0  0  2  0  0  3  0  0  0  0  0  0
    9.3100   10.6340   17.7820 C   0  0  0  0  0  2  0  0  0  0  0  0
    8.1320   10.0620   18.4990 C   0  0  2  0  0  3  0  0  0  0  0  0
    9.5480   13.0270   17.0880 N   0  0  0  0  0  0  0  0  0  0  0  0
   10.4250   13.2330   18.1150 C   0  0  0  0  0  3  0  0  0  0  0  0
   11.3130   14.2920   18.0580 C   0  0  0  0  0  3  0  0  0  0  0  0
   11.3930   15.0110   16.8790 C   0  0  0  0  0  0  0  0  0  0  0  0
   12.1970   15.9530   16.7660 O   0  0  0  0  0  0  0  0  0  0  0  0
   10.4870   14.7840   15.8630 N   0  0  0  0  0  0  0  0  0  0  0  0
   10.3910   15.4760   15.1450 H   0  0  0  0  0  0  0  0  0  0  0  0
    9.5940   13.7620   15.9380 C   0  0  0  0  0  0  0  0  0  0  0  0
    8.8130   13.5590   15.0030 O   0  0  0  0  0  0  0  0  0  0  0  0
    7.6520    9.0170   17.6980 O   0  0  0  0  0  0  0  0  0  0  0  0
    6.7390    9.2240   17.4070 H   0  0  0  0  0  0  0  0  0  0  0  0
    7.3080   12.1150   19.8080 C   0  0  0  0  0  2  0  0  0  0  0  0
    6.8410   13.4340   19.5820 O   0  0  0  0  0  0  0  0  0  0  0  0
    6.9960   14.5520   20.7080 P   0  0  0  0  0  0  0  0  0  0  0  0
    7.1010   13.8320   22.0010 O   0  0  0  0  0  1  0  0  0  0  0  0
    8.2190   15.3250   20.3660 O   0  0  0  0  0  0  0  0  0  0  0  0
    5.7960   15.4800   20.7630 O   0  0  0  0  0  1  0  0  0  0  0  0
  1 17  1  1  0  0  0
  2  1  1  0  0  0  0
  3  6  1  1  0  0  0
  3  2  1  0  0  0  0
  3  4  1  0  0  0  0
  4  5  1  0  0  0  0
  5 15  1  6  0  0  0
  5  1  1  0  0  0  0
  6  7  1  0  0  0  0
  8  7  2  0  0  0  0
  9  8  1  0  0  0  0
 10  9  2  0  0  0  0
 11 13  1  0  0  0  0
 11  9  1  0  0  0  0
 12 11  1  0  0  0  0
 13  6  1  0  0  0  0
 14 13  2  0  0  0  0
 16 15  1  0  0  0  0
 18 17  1  0  0  0  0
 18 19  1  0  0  0  0
 19 22  1  0  0  0  0
 19 20  1  0  0  0  0
 21 19  2  0  0  0  0
M  END
$$$$
output_dock/lig-dump-rec-1.all_poses.pdbqt
 OpenBabel06202210173D

 22 23  0  0  1  0  0  0  0  0999 V2000
  -16.3830    6.0300    5.4390 C   0  0  1  0  0  3  0  0  0  0  0  0
  -15.2820    6.8040    5.0300 O   0  0  0  0  0  0  0  0  0  0  0  0
  -15.8070    7.6950    4.1420 C   0  0  2  0  0  3  0  0  0  0  0  0
  -17.2570    8.0040    4.3810 C   0  0  0  0  0  2  0  0  0  0  0  0
  -17.5690    7.0280    5.4670 C   0  0  2  0  0  3  0  0  0  0  0  0
  -15.3190    7.8360    2.8070 N   0  0  0  0  0  0  0  0  0  0  0  0
  -16.1380    7.3690    1.8190 C   0  0  0  0  0  3  0  0  0  0  0  0
  -15.7640    7.5060    0.4940 C   0  0  0  0  0  3  0  0  0  0  0  0
  -14.6430    8.2640    0.2110 C   0  0  0  0  0  0  0  0  0  0  0  0
  -14.2810    8.4440   -0.9650 O   0  0  0  0  0  0  0  0  0  0  0  0
  -13.8300    8.7160    1.2320 N   0  0  0  0  0  0  0  0  0  0  0  0
  -12.9040    9.0240    1.0060 H   0  0  0  0  0  0  0  0  0  0  0  0
  -14.1870    8.5490    2.5330 C   0  0  0  0  0  0  0  0  0  0  0  0
  -13.4590    8.9880    3.4290 O   0  0  0  0  0  0  0  0  0  0  0  0
  -17.5980    7.7610    6.6610 O   0  0  0  0  0  0  0  0  0  0  0  0
  -16.9460    8.4900    6.6090 H   0  0  0  0  0  0  0  0  0  0  0  0
  -16.5980    4.8650    4.4740 C   0  0  0  0  0  2  0  0  0  0  0  0
  -15.7630    3.7650    4.7920 O   0  0  0  0  0  0  0  0  0  0  0  0
  -16.2870    2.5980    5.7440 P   0  0  0  0  0  0  0  0  0  0  0  0
  -16.4320    1.3940    4.8890 O   0  0  0  0  0  0  0  0  0  0  0  0
  -15.2650    2.4380    6.8120 O   0  0  0  0  0  1  0  0  0  0  0  0
  -17.6340    2.9230    6.3610 O   0  0  0  0  0  1  0  0  0  0  0  0
  1 17  1  6  0  0  0
  1  5  1  0  0  0  0
  2  1  1  0  0  0  0
  3  6  1  6  0  0  0
  3  4  1  0  0  0  0
  3  2  1  0  0  0  0
  4  5  1  0  0  0  0
  5 15  1  1  0  0  0
  7  6  1  0  0  0  0
  8  7  2  0  0  0  0
  9  8  1  0  0  0  0
  9 11  1  0  0  0  0
 10  9  2  0  0  0  0
 11 13  1  0  0  0  0
 12 11  1  0  0  0  0
 13  6  1  0  0  0  0
 13 14  2  0  0  0  0
 16 15  1  0  0  0  0
 17 18  1  0  0  0  0
 18 19  1  0  0  0  0
 19 22  1  0  0  0  0
 19 21  1  0  0  0  0
 20 19  2  0  0  0  0
M  END
$$$$
output_dock/lig-dump-rec-1.all_poses.pdbqt
 OpenBabel06202210173D

 22 23  0  0  1  0  0  0  0  0999 V2000
  -13.3270    6.4900    1.9040 C   0  0  1  0  0  3  0  0  0  0  0  0
  -12.6400    7.1300    0.8570 O   0  0  0  0  0  0  0  0  0  0  0  0
  -13.5250    8.0530    0.3870 C   0  0  2  0  0  3  0  0  0  0  0  0
  -14.5120    8.5230    1.4170 C   0  0  0  0  0  2  0  0  0  0  0  0
  -14.1800    7.6110    2.5500 C   0  0  2  0  0  3  0  0  0  0  0  0
  -13.9290    8.1110   -0.9820 N   0  0  0  0  0  0  0  0  0  0  0  0
  -15.1180    7.5090   -1.2800 C   0  0  0  0  0  3  0  0  0  0  0  0
  -15.6080    7.5560   -2.5730 C   0  0  0  0  0  3  0  0  0  0  0  0
  -14.9500    8.3580   -3.4880 C   0  0  0  0  0  0  0  0  0  0  0  0
  -15.3660    8.4590   -4.6550 O   0  0  0  0  0  0  0  0  0  0  0  0
  -13.7450    8.9470   -3.1590 N   0  0  0  0  0  0  0  0  0  0  0  0
  -13.1640    9.2930   -3.8980 H   0  0  0  0  0  0  0  0  0  0  0  0
  -13.2520    8.8690   -1.8940 C   0  0  0  0  0  0  0  0  0  0  0  0
  -12.1870    9.4280   -1.6150 O   0  0  0  0  0  0  0  0  0  0  0  0
  -13.4300    8.3690    3.4600 O   0  0  0  0  0  0  0  0  0  0  0  0
  -12.8980    7.7680    4.0210 H   0  0  0  0  0  0  0  0  0  0  0  0
  -14.1640    5.3340    1.3590 C   0  0  0  0  0  2  0  0  0  0  0  0
  -13.5210    4.6920    0.2710 O   0  0  0  0  0  0  0  0  0  0  0  0
  -13.3740    3.1050    0.2380 P   0  0  0  0  0  0  0  0  0  0  0  0
  -11.9950    2.8220   -0.2310 O   0  0  0  0  0  1  0  0  0  0  0  0
  -13.6310    2.6310    1.6230 O   0  0  0  0  0  1  0  0  0  0  0  0
  -14.3570    2.4590   -0.7210 O   0  0  0  0  0  0  0  0  0  0  0  0
  1 17  1  6  0  0  0
  1  5  1  0  0  0  0
  2  1  1  0  0  0  0
  3  6  1  6  0  0  0
  3  2  1  0  0  0  0
  3  4  1  0  0  0  0
  4  5  1  0  0  0  0
  5 15  1  1  0  0  0
  7  6  1  0  0  0  0
  8  7  2  0  0  0  0
  9 11  1  0  0  0  0
  9  8  1  0  0  0  0
 10  9  2  0  0  0  0
 11 13  1  0  0  0  0
 12 11  1  0  0  0  0
 13 14  2  0  0  0  0
 13  6  1  0  0  0  0
 15 16  1  0  0  0  0
 18 17  1  0  0  0  0
 19 18  1  0  0  0  0
 19 21  1  0  0  0  0
 20 19  1  0  0  0  0
 22 19  2  0  0  0  0
M  END
$$$$
output_dock/lig-dump-rec-1.all_poses.pdbqt
 OpenBabel06202210173D

 22 23  0  0  1  0  0  0  0  0999 V2000
  -15.9180    6.3870    1.3890 C   0  0  1  0  0  3  0  0  0  0  0  0
  -16.4660    5.5450    2.3730 O   0  0  0  0  0  0  0  0  0  0  0  0
  -16.9980    6.4000    3.2910 C   0  0  2  0  0  3  0  0  0  0  0  0
  -17.4100    7.7250    2.7160 C   0  0  0  0  0  2  0  0  0  0  0  0
  -16.8920    7.5900    1.3220 C   0  0  2  0  0  3  0  0  0  0  0  0
  -16.6420    6.3690    4.6740 N   0  0  0  0  0  0  0  0  0  0  0  0
  -17.1650    5.3390    5.4020 C   0  0  0  0  0  3  0  0  0  0  0  0
  -16.8360    5.2050    6.7390 C   0  0  0  0  0  3  0  0  0  0  0  0
  -15.8530    6.0320    7.2520 C   0  0  0  0  0  0  0  0  0  0  0  0
  -15.4990    5.9320    8.4400 O   0  0  0  0  0  0  0  0  0  0  0  0
  -15.3500    7.0700    6.4940 N   0  0  0  0  0  0  0  0  0  0  0  0
  -14.8500    7.8030    6.9580 H   0  0  0  0  0  0  0  0  0  0  0  0
  -15.7020    7.2160    5.1890 C   0  0  0  0  0  0  0  0  0  0  0  0
  -15.2170    8.1340    4.5210 O   0  0  0  0  0  0  0  0  0  0  0  0
  -18.0020    7.3110    0.5130 O   0  0  0  0  0  0  0  0  0  0  0  0
  -17.7010    6.8830   -0.3140 H   0  0  0  0  0  0  0  0  0  0  0  0
  -14.4920    6.7850    1.7670 C   0  0  0  0  0  2  0  0  0  0  0  0
  -13.6700    6.9260    0.6220 O   0  0  0  0  0  0  0  0  0  0  0  0
  -13.1180    8.3590    0.1920 P   0  0  0  0  0  0  0  0  0  0  0  0
  -11.6380    8.2640    0.2200 O   0  0  0  0  0  1  0  0  0  0  0  0
  -13.6630    8.6290   -1.1650 O   0  0  0  0  0  0  0  0  0  0  0  0
  -13.5540    9.4520    1.1500 O   0  0  0  0  0  1  0  0  0  0  0  0
  1 17  1  1  0  0  0
  1  2  1  0  0  0  0
  2  3  1  0  0  0  0
  3  4  1  6  0  0  0
  3  6  1  0  0  0  0
  5 15  1  6  0  0  0
  5  1  1  0  0  0  0
  5  4  1  0  0  0  0
  6 13  1  0  0  0  0
  6  7  1  0  0  0  0
  7  8  2  0  0  0  0
  8  9  1  0  0  0  0
  9 10  2  0  0  0  0
 11 12  1  0  0  0  0
 11  9  1  0  0  0  0
 13 11  1  0  0  0  0
 14 13  2  0  0  0  0
 16 15  1  0  0  0  0
 18 17  1  0  0  0  0
 19 20  1  0  0  0  0
 19 18  1  0  0  0  0
 19 22  1  0  0  0  0
 21 19  2  0  0  0  0
M  END
$$$$
output_dock/lig-dump-rec-1.all_poses.pdbqt
 OpenBabel06202210173D

 22 23  0  0  1  0  0  0  0  0999 V2000
   11.2680   10.5910   17.0470 C   0  0  1  0  0  3  0  0  0  0  0  0
   10.2610   10.7660   18.0130 O   0  0  0  0  0  0  0  0  0  0  0  0
    9.1070   10.4520   17.3580 C   0  0  2  0  0  3  0  0  0  0  0  0
    9.2990    9.4840   16.2270 C   0  0  0  0  0  2  0  0  0  0  0  0
   10.7880    9.3850   16.2010 C   0  0  2  0  0  3  0  0  0  0  0  0
    7.9970   11.3480   17.2740 N   0  0  0  0  0  0  0  0  0  0  0  0
    7.3470   11.6050   18.4470 C   0  0  0  0  0  3  0  0  0  0  0  0
    6.2890   12.4960   18.4650 C   0  0  0  0  0  3  0  0  0  0  0  0
    6.0320   13.2240   17.3170 C   0  0  0  0  0  0  0  0  0  0  0  0
    5.1120   14.0590   17.2900 O   0  0  0  0  0  0  0  0  0  0  0  0
    6.7010   12.9340   16.1440 N   0  0  0  0  0  0  0  0  0  0  0  0
    6.3250   13.2760   15.2810 H   0  0  0  0  0  0  0  0  0  0  0  0
    7.7190   12.0320   16.1260 C   0  0  0  0  0  0  0  0  0  0  0  0
    8.3230   11.8110   15.0720 O   0  0  0  0  0  0  0  0  0  0  0  0
   11.1140    8.1660   16.8110 O   0  0  0  0  0  0  0  0  0  0  0  0
   11.6130    8.3390   17.6350 H   0  0  0  0  0  0  0  0  0  0  0  0
   11.4450   11.8700   16.2290 C   0  0  0  0  0  2  0  0  0  0  0  0
   11.7330   12.9830   17.0580 O   0  0  0  0  0  0  0  0  0  0  0  0
   10.9270   14.3480   16.8920 P   0  0  0  0  0  0  0  0  0  0  0  0
   11.8660   15.4360   17.2590 O   0  0  0  0  0  1  0  0  0  0  0  0
   10.4880   14.4050   15.4720 O   0  0  0  0  0  0  0  0  0  0  0  0
    9.7200   14.4160   17.8090 O   0  0  0  0  0  1  0  0  0  0  0  0
  1 17  1  6  0  0  0
  1  2  1  0  0  0  0
  3  4  1  6  0  0  0
  3  2  1  0  0  0  0
  5  4  1  0  0  0  0
  5 15  1  1  0  0  0
  5  1  1  0  0  0  0
  6  3  1  0  0  0  0
  6  7  1  0  0  0  0
  7  8  2  0  0  0  0
  9  8  1  0  0  0  0
 10  9  2  0  0  0  0
 11  9  1  0  0  0  0
 12 11  1  0  0  0  0
 13 11  1  0  0  0  0
 13  6  1  0  0  0  0
 14 13  2  0  0  0  0
 15 16  1  0  0  0  0
 17 18  1  0  0  0  0
 19 18  1  0  0  0  0
 19 20  1  0  0  0  0
 19 22  1  0  0  0  0
 21 19  2  0  0  0  0
M  END
$$$$
output_dock/lig-dump-rec-1.all_poses.pdbqt
 OpenBabel06202210173D

 22 23  0  0  1  0  0  0  0  0999 V2000
  -16.2650    5.5320    5.4170 C   0  0  1  0  0  3  0  0  0  0  0  0
  -16.5460    5.5590    4.0400 O   0  0  0  0  0  0  0  0  0  0  0  0
  -17.1040    6.7850    3.8330 C   0  0  2  0  0  3  0  0  0  0  0  0
  -16.6570    7.8260    4.8190 C   0  0  0  0  0  2  0  0  0  0  0  0
  -15.8560    6.9870    5.7580 C   0  0  2  0  0  3  0  0  0  0  0  0
  -18.3880    6.9590    3.2330 N   0  0  0  0  0  0  0  0  0  0  0  0
  -19.3860    7.3770    4.0680 C   0  0  0  0  0  3  0  0  0  0  0  0
  -20.6510    7.6140    3.5620 C   0  0  0  0  0  3  0  0  0  0  0  0
  -20.8190    7.5780    2.1890 C   0  0  0  0  0  0  0  0  0  0  0  0
  -21.9300    7.8140    1.6820 O   0  0  0  0  0  0  0  0  0  0  0  0
  -19.7940    7.1440    1.3730 N   0  0  0  0  0  0  0  0  0  0  0  0
  -20.0120    6.8730    0.4330 H   0  0  0  0  0  0  0  0  0  0  0  0
  -18.5610    6.8800    1.8810 C   0  0  0  0  0  0  0  0  0  0  0  0
  -17.6510    6.5210    1.1270 O   0  0  0  0  0  0  0  0  0  0  0  0
  -14.5100    7.2300    5.4540 O   0  0  0  0  0  0  0  0  0  0  0  0
  -14.4350    8.0740    4.9630 H   0  0  0  0  0  0  0  0  0  0  0  0
  -17.4870    5.0500    6.1980 C   0  0  0  0  0  2  0  0  0  0  0  0
  -17.4750    5.5280    7.5320 O   0  0  0  0  0  0  0  0  0  0  0  0
  -17.0880    4.5580    8.7370 P   0  0  0  0  0  0  0  0  0  0  0  0
  -17.8830    3.3200    8.5490 O   0  0  0  0  0  0  0  0  0  0  0  0
  -15.6220    4.3340    8.6410 O   0  0  0  0  0  1  0  0  0  0  0  0
  -17.4320    5.1570   10.0880 O   0  0  0  0  0  1  0  0  0  0  0  0
  1  5  1  0  0  0  0
  1 17  1  1  0  0  0
  2  1  1  0  0  0  0
  3  6  1  1  0  0  0
  3  2  1  0  0  0  0
  3  4  1  0  0  0  0
  4  5  1  0  0  0  0
  5 15  1  6  0  0  0
  6  7  1  0  0  0  0
  8  7  2  0  0  0  0
  9  8  1  0  0  0  0
 10  9  2  0  0  0  0
 11 13  1  0  0  0  0
 11  9  1  0  0  0  0
 12 11  1  0  0  0  0
 13  6  1  0  0  0  0
 14 13  2  0  0  0  0
 16 15  1  0  0  0  0
 17 18  1  0  0  0  0
 18 19  1  0  0  0  0
 19 22  1  0  0  0  0
 20 19  2  0  0  0  0
 21 19  1  0  0  0  0
M  END
$$$$
output_dock/lig-dump-rec-1.all_poses.pdbqt
 OpenBabel06202210173D

 22 23  0  0  1  0  0  0  0  0999 V2000
    9.1550   10.3140   16.5380 C   0  0  1  0  0  3  0  0  0  0  0  0
    9.1480   11.2140   15.4570 O   0  0  0  0  0  0  0  0  0  0  0  0
   10.2910   11.9400   15.6150 C   0  0  2  0  0  3  0  0  0  0  0  0
   11.3790   11.2030   16.3420 C   0  0  0  0  0  2  0  0  0  0  0  0
   10.6500    9.9630   16.7410 C   0  0  2  0  0  3  0  0  0  0  0  0
   10.2960   13.3650   15.6980 N   0  0  0  0  0  0  0  0  0  0  0  0
    9.0800   13.9560   15.8920 C   0  0  0  0  0  3  0  0  0  0  0  0
    8.9980   15.3310   16.0300 C   0  0  0  0  0  3  0  0  0  0  0  0
   10.1780   16.0450   16.1320 C   0  0  0  0  0  0  0  0  0  0  0  0
   10.1590   17.2780   16.2870 O   0  0  0  0  0  0  0  0  0  0  0  0
   11.3910   15.4200   15.9230 N   0  0  0  0  0  0  0  0  0  0  0  0
   12.1960   15.9870   15.7380 H   0  0  0  0  0  0  0  0  0  0  0  0
   11.4630   14.0730   15.7550 C   0  0  0  0  0  0  0  0  0  0  0  0
   12.5620   13.5310   15.5990 O   0  0  0  0  0  0  0  0  0  0  0  0
   11.0680    8.9580   15.8580 O   0  0  0  0  0  0  0  0  0  0  0  0
   10.5390    8.1490   16.0130 H   0  0  0  0  0  0  0  0  0  0  0  0
    8.5140   10.9580   17.7660 C   0  0  0  0  0  2  0  0  0  0  0  0
    7.2390   11.4980   17.4660 O   0  0  0  0  0  0  0  0  0  0  0  0
    6.2830   12.0160   18.6330 P   0  0  0  0  0  0  0  0  0  0  0  0
    7.1700   12.4260   19.7490 O   0  0  0  0  0  1  0  0  0  0  0  0
    5.4990   13.1430   18.0630 O   0  0  0  0  0  0  0  0  0  0  0  0
    5.3450   10.9320   19.1290 O   0  0  0  0  0  1  0  0  0  0  0  0
  1  5  1  0  0  0  0
  1 17  1  1  0  0  0
  2  3  1  0  0  0  0
  2  1  1  0  0  0  0
  3  6  1  1  0  0  0
  3  4  1  0  0  0  0
  4  5  1  0  0  0  0
  5 15  1  6  0  0  0
  6 13  1  0  0  0  0
  6  7  1  0  0  0  0
  7  8  2  0  0  0  0
  8  9  1  0  0  0  0
  9 10  2  0  0  0  0
 11  9  1  0  0  0  0
 12 11  1  0  0  0  0
 13 11  1  0  0  0  0
 14 13  2  0  0  0  0
 15 16  1  0  0  0  0
 18 17  1  0  0  0  0
 18 19  1  0  0  0  0
 19 22  1  0  0  0  0
 19 20  1  0  0  0  0
 21 19  2  0  0  0  0
M  END
$$$$
output_dock/lig-dump-rec-1.all_poses.pdbqt
 OpenBabel06202210173D

 22 23  0  0  1  0  0  0  0  0999 V2000
  -14.8210    8.5160   -1.7010 C   0  0  1  0  0  3  0  0  0  0  0  0
  -15.2650    9.0780   -0.4910 O   0  0  0  0  0  0  0  0  0  0  0  0
  -14.3790    8.6220    0.4390 C   0  0  2  0  0  3  0  0  0  0  0  0
  -13.0210    8.3120   -0.1220 C   0  0  0  0  0  2  0  0  0  0  0  0
  -13.2760    8.5050   -1.5800 C   0  0  2  0  0  3  0  0  0  0  0  0
  -14.7840    7.9080    1.6080 N   0  0  0  0  0  0  0  0  0  0  0  0
  -15.2870    6.6560    1.3980 C   0  0  0  0  0  3  0  0  0  0  0  0
  -15.6620    5.8760    2.4780 C   0  0  0  0  0  3  0  0  0  0  0  0
  -15.3560    6.3340    3.7470 C   0  0  0  0  0  0  0  0  0  0  0  0
  -15.6440    5.6570    4.7490 O   0  0  0  0  0  0  0  0  0  0  0  0
  -14.8560    7.6080    3.9260 N   0  0  0  0  0  0  0  0  0  0  0  0
  -14.8930    8.0130    4.8420 H   0  0  0  0  0  0  0  0  0  0  0  0
  -14.5210    8.3830    2.8600 C   0  0  0  0  0  0  0  0  0  0  0  0
  -14.0460    9.5080    3.0450 O   0  0  0  0  0  0  0  0  0  0  0  0
  -12.7240    9.7490   -1.9170 O   0  0  0  0  0  0  0  0  0  0  0  0
  -13.2220   10.1320   -2.6680 H   0  0  0  0  0  0  0  0  0  0  0  0
  -15.4220    7.1230   -1.8890 C   0  0  0  0  0  2  0  0  0  0  0  0
  -15.3950    6.7230   -3.2480 O   0  0  0  0  0  0  0  0  0  0  0  0
  -16.4510    7.3130   -4.2870 P   0  0  0  0  0  0  0  0  0  0  0  0
  -17.6550    7.6740   -3.5000 O   0  0  0  0  0  1  0  0  0  0  0  0
  -15.7980    8.4830   -4.9300 O   0  0  0  0  0  1  0  0  0  0  0  0
  -16.8450    6.2970   -5.3430 O   0  0  0  0  0  0  0  0  0  0  0  0
  1 17  1  1  0  0  0
  1  5  1  0  0  0  0
  1  2  1  0  0  0  0
  2  3  1  0  0  0  0
  3  4  1  6  0  0  0
  3  6  1  0  0  0  0
  5 15  1  1  0  0  0
  5  4  1  0  0  0  0
  6 13  1  0  0  0  0
  7  6  1  0  0  0  0
  7  8  2  0  0  0  0
  8  9  1  0  0  0  0
  9 11  1  0  0  0  0
  9 10  2  0  0  0  0
 11 12  1  0  0  0  0
 13 14  2  0  0  0  0
 13 11  1  0  0  0  0
 16 15  1  0  0  0  0
 18 17  1  0  0  0  0
 19 20  1  0  0  0  0
 19 18  1  0  0  0  0
 21 19  1  0  0  0  0
 22 19  2  0  0  0  0
M  END
$$$$
output_dock/lig-dump-rec-1.all_poses.pdbqt
 OpenBabel06202210173D

 22 23  0  0  1  0  0  0  0  0999 V2000
    9.3990   12.1580   15.7670 C   0  0  1  0  0  3  0  0  0  0  0  0
   10.1730   13.1800   15.1890 O   0  0  0  0  0  0  0  0  0  0  0  0
   11.1990   13.3630   16.0670 C   0  0  2  0  0  3  0  0  0  0  0  0
   11.5350   12.1390   16.8690 C   0  0  0  0  0  2  0  0  0  0  0  0
   10.4330   11.2250   16.4460 C   0  0  2  0  0  3  0  0  0  0  0  0
   11.5010   14.6320   16.6500 N   0  0  0  0  0  0  0  0  0  0  0  0
   11.9580   15.5900   15.7920 C   0  0  0  0  0  3  0  0  0  0  0  0
   12.2320   16.8620   16.2630 C   0  0  0  0  0  3  0  0  0  0  0  0
   11.8740   17.1630   17.5650 C   0  0  0  0  0  0  0  0  0  0  0  0
   12.0700   18.3000   18.0270 O   0  0  0  0  0  0  0  0  0  0  0  0
   11.4220   16.1700   18.4100 N   0  0  0  0  0  0  0  0  0  0  0  0
   11.4230   16.3450   19.3970 H   0  0  0  0  0  0  0  0  0  0  0  0
   11.1860   14.9130   17.9490 C   0  0  0  0  0  0  0  0  0  0  0  0
   10.7530   14.0480   18.7170 O   0  0  0  0  0  0  0  0  0  0  0  0
   10.9960   10.3260   15.5290 O   0  0  0  0  0  0  0  0  0  0  0  0
   10.3340   10.1070   14.8410 H   0  0  0  0  0  0  0  0  0  0  0  0
    8.3870   12.7510   16.7470 C   0  0  0  0  0  2  0  0  0  0  0  0
    8.2000   11.9120   17.8740 O   0  0  0  0  0  0  0  0  0  0  0  0
    6.8070   11.8950   18.6490 P   0  0  0  0  0  0  0  0  0  0  0  0
    7.0300   12.6150   19.9260 O   0  0  0  0  0  1  0  0  0  0  0  0
    5.8240   12.5680   17.7600 O   0  0  0  0  0  0  0  0  0  0  0  0
    6.3410   10.4840   18.9600 O   0  0  0  0  0  1  0  0  0  0  0  0
  1  5  1  0  0  0  0
  1 17  1  1  0  0  0
  2  1  1  0  0  0  0
  2  3  1  0  0  0  0
  3  6  1  1  0  0  0
  3  4  1  0  0  0  0
  5 15  1  6  0  0  0
  5  4  1  0  0  0  0
  6 13  1  0  0  0  0
  7  8  2  0  0  0  0
  7  6  1  0  0  0  0
  8  9  1  0  0  0  0
  9 10  2  0  0  0  0
  9 11  1  0  0  0  0
 11 12  1  0  0  0  0
 13 11  1  0  0  0  0
 13 14  2  0  0  0  0
 16 15  1  0  0  0  0
 17 18  1  0  0  0  0
 18 19  1  0  0  0  0
 19 22  1  0  0  0  0
 19 20  1  0  0  0  0
 21 19  2  0  0  0  0
M  END
$$$$
output_dock/lig-dump-rec-1.all_poses.pdbqt
 OpenBabel06202210173D

 22 23  0  0  1  0  0  0  0  0999 V2000
  -11.8530   16.1130   18.0180 C   0  0  1  0  0  3  0  0  0  0  0  0
  -10.4530   16.1590   17.8970 O   0  0  0  0  0  0  0  0  0  0  0  0
  -10.1790   15.3440   16.8390 C   0  0  2  0  0  3  0  0  0  0  0  0
  -11.3010   15.2450   15.8450 C   0  0  0  0  0  2  0  0  0  0  0  0
  -12.3660   16.0110   16.5590 C   0  0  2  0  0  3  0  0  0  0  0  0
   -9.2840   14.2350   16.9280 N   0  0  0  0  0  0  0  0  0  0  0  0
   -8.3580   14.2940   17.9300 C   0  0  0  0  0  3  0  0  0  0  0  0
   -7.4800   13.2420   18.1190 C   0  0  0  0  0  3  0  0  0  0  0  0
   -7.6820   12.0880   17.3830 C   0  0  0  0  0  0  0  0  0  0  0  0
   -6.9400   11.1020   17.5370 O   0  0  0  0  0  0  0  0  0  0  0  0
   -8.6210   12.0620   16.3710 N   0  0  0  0  0  0  0  0  0  0  0  0
   -8.5700   11.3290   15.6900 H   0  0  0  0  0  0  0  0  0  0  0  0
   -9.4590   13.1130   16.1700 C   0  0  0  0  0  0  0  0  0  0  0  0
  -10.3110   13.0550   15.2780 O   0  0  0  0  0  0  0  0  0  0  0  0
  -12.4260   17.2690   15.9440 O   0  0  0  0  0  0  0  0  0  0  0  0
  -12.5220   17.1530   14.9770 H   0  0  0  0  0  0  0  0  0  0  0  0
  -12.2710   14.9290   18.8880 C   0  0  0  0  0  2  0  0  0  0  0  0
  -11.1870   14.4430   19.6610 O   0  0  0  0  0  0  0  0  0  0  0  0
  -11.1690   12.9330   20.1730 P   0  0  0  0  0  0  0  0  0  0  0  0
  -12.5100   12.6710   20.7510 O   0  0  0  0  0  1  0  0  0  0  0  0
  -10.8690   12.0910   18.9840 O   0  0  0  0  0  0  0  0  0  0  0  0
  -10.1220   12.7030   21.2460 O   0  0  0  0  0  1  0  0  0  0  0  0
  1 17  1  1  0  0  0
  2  1  1  0  0  0  0
  3  4  1  1  0  0  0
  3  6  1  0  0  0  0
  3  2  1  0  0  0  0
  4  5  1  0  0  0  0
  5 15  1  6  0  0  0
  5  1  1  0  0  0  0
  6  7  1  0  0  0  0
  7  8  2  0  0  0  0
  9 10  2  0  0  0  0
  9  8  1  0  0  0  0
 11  9  1  0  0  0  0
 12 11  1  0  0  0  0
 13 11  1  0  0  0  0
 13  6  1  0  0  0  0
 14 13  2  0  0  0  0
 16 15  1  0  0  0  0
 17 18  1  0  0  0  0
 18 19  1  0  0  0  0
 19 20  1  0  0  0  0
 19 22  1  0  0  0  0
 21 19  2  0  0  0  0
M  END
$$$$
output_dock/lig-dump-rec-1.all_poses.pdbqt
 OpenBabel06202210173D

 22 23  0  0  1  0  0  0  0  0999 V2000
    9.5060   14.2370   16.2060 C   0  0  1  0  0  3  0  0  0  0  0  0
    8.4610   14.9380   15.5790 O   0  0  0  0  0  0  0  0  0  0  0  0
    8.4700   16.1630   16.1770 C   0  0  2  0  0  3  0  0  0  0  0  0
    9.8160   16.5670   16.7080 C   0  0  0  0  0  2  0  0  0  0  0  0
   10.5900   15.3120   16.4740 C   0  0  2  0  0  3  0  0  0  0  0  0
    7.3200   16.7210   16.8150 N   0  0  0  0  0  0  0  0  0  0  0  0
    7.5640   17.4970   17.9120 C   0  0  0  0  0  3  0  0  0  0  0  0
    6.5110   18.1140   18.5650 C   0  0  0  0  0  3  0  0  0  0  0  0
    5.2600   18.0550   17.9800 C   0  0  0  0  0  0  0  0  0  0  0  0
    4.2870   18.6190   18.5100 O   0  0  0  0  0  0  0  0  0  0  0  0
    5.0440   17.2550   16.8750 N   0  0  0  0  0  0  0  0  0  0  0  0
    4.1010   17.0190   16.6320 H   0  0  0  0  0  0  0  0  0  0  0  0
    6.0780   16.6250   16.2570 C   0  0  0  0  0  0  0  0  0  0  0  0
    5.8650   15.9380   15.2530 O   0  0  0  0  0  0  0  0  0  0  0  0
   11.3800   15.5400   15.3390 O   0  0  0  0  0  0  0  0  0  0  0  0
   10.8040   15.5950   14.5490 H   0  0  0  0  0  0  0  0  0  0  0  0
    8.9990   13.5610   17.4800 C   0  0  0  0  0  2  0  0  0  0  0  0
    7.7190   12.9840   17.2890 O   0  0  0  0  0  0  0  0  0  0  0  0
    7.1390   11.9340   18.3400 P   0  0  0  0  0  0  0  0  0  0  0  0
    7.4710   10.5870   17.8120 O   0  0  0  0  0  0  0  0  0  0  0  0
    7.7970   12.2330   19.6390 O   0  0  0  0  0  1  0  0  0  0  0  0
    5.6330   12.0420   18.4860 O   0  0  0  0  0  1  0  0  0  0  0  0
  1  5  1  0  0  0  0
  1 17  1  1  0  0  0
  2  3  1  0  0  0  0
  2  1  1  0  0  0  0
  3  4  1  1  0  0  0
  3  6  1  0  0  0  0
  5 15  1  6  0  0  0
  5  4  1  0  0  0  0
  6  7  1  0  0  0  0
  7  8  2  0  0  0  0
  9 10  2  0  0  0  0
  9  8  1  0  0  0  0
 11  9  1  0  0  0  0
 12 11  1  0  0  0  0
 13  6  1  0  0  0  0
 13 11  1  0  0  0  0
 14 13  2  0  0  0  0
 16 15  1  0  0  0  0
 18 17  1  0  0  0  0
 18 19  1  0  0  0  0
 19 22  1  0  0  0  0
 19 21  1  0  0  0  0
 20 19  2  0  0  0  0
M  END
$$$$
output_dock/lig-dump-rec-1.all_poses.pdbqt
 OpenBabel06202210173D

 22 23  0  0  1  0  0  0  0  0999 V2000
  -14.1750    9.1870   -1.2150 C   0  0  1  0  0  3  0  0  0  0  0  0
  -14.6360    8.5980   -0.0250 O   0  0  0  0  0  0  0  0  0  0  0  0
  -13.6000    7.8150    0.3880 C   0  0  2  0  0  3  0  0  0  0  0  0
  -12.2550    8.2990   -0.0730 C   0  0  0  0  0  2  0  0  0  0  0  0
  -12.6620    9.4200   -0.9710 C   0  0  2  0  0  3  0  0  0  0  0  0
  -13.7410    6.4160    0.6430 N   0  0  0  0  0  0  0  0  0  0  0  0
  -14.8960    5.8420    0.1950 C   0  0  0  0  0  3  0  0  0  0  0  0
  -15.0970    4.4820    0.3590 C   0  0  0  0  0  3  0  0  0  0  0  0
  -14.0400    3.7220    0.8260 C   0  0  0  0  0  0  0  0  0  0  0  0
  -14.1580    2.4920    0.9620 O   0  0  0  0  0  0  0  0  0  0  0  0
  -12.8880    4.3340    1.2780 N   0  0  0  0  0  0  0  0  0  0  0  0
  -12.2560    3.8030    1.8480 H   0  0  0  0  0  0  0  0  0  0  0  0
  -12.7110    5.6750    1.1450 C   0  0  0  0  0  0  0  0  0  0  0  0
  -11.6590    6.1960    1.5300 O   0  0  0  0  0  0  0  0  0  0  0  0
  -12.4310   10.6030   -0.2560 O   0  0  0  0  0  0  0  0  0  0  0  0
  -12.3170   10.3910    0.6930 H   0  0  0  0  0  0  0  0  0  0  0  0
  -14.4600    8.2720   -2.4050 C   0  0  0  0  0  2  0  0  0  0  0  0
  -15.8280    8.3080   -2.7740 O   0  0  0  0  0  0  0  0  0  0  0  0
  -16.2930    7.8050   -4.2140 P   0  0  0  0  0  0  0  0  0  0  0  0
  -17.7750    7.7560   -4.1810 O   0  0  0  0  0  1  0  0  0  0  0  0
  -15.7610    8.7890   -5.1930 O   0  0  0  0  0  0  0  0  0  0  0  0
  -15.7660    6.4190   -4.5350 O   0  0  0  0  0  1  0  0  0  0  0  0
  1 17  1  6  0  0  0
  1  5  1  0  0  0  0
  1  2  1  0  0  0  0
  2  3  1  0  0  0  0
  3  4  1  6  0  0  0
  3  6  1  0  0  0  0
  5 15  1  1  0  0  0
  5  4  1  0  0  0  0
  6 13  1  0  0  0  0
  7  8  2  0  0  0  0
  7  6  1  0  0  0  0
  8  9  1  0  0  0  0
  9 10  2  0  0  0  0
  9 11  1  0  0  0  0
 11 12  1  0  0  0  0
 13 11  1  0  0  0  0
 13 14  2  0  0  0  0
 15 16  1  0  0  0  0
 18 17  1  0  0  0  0
 19 20  1  0  0  0  0
 19 18  1  0  0  0  0
 21 19  2  0  0  0  0
 22 19  1  0  0  0  0
M  END
$$$$
output_dock/lig-dump-rec-1.all_poses.pdbqt
 OpenBabel06202210173D

 22 23  0  0  1  0  0  0  0  0999 V2000
  -15.7200    2.3970    6.8490 C   0  0  1  0  0  3  0  0  0  0  0  0
  -15.1550    3.6570    7.1150 O   0  0  0  0  0  0  0  0  0  0  0  0
  -16.2280    4.4880    7.2430 C   0  0  2  0  0  3  0  0  0  0  0  0
  -17.4780    3.7950    7.7070 C   0  0  0  0  0  2  0  0  0  0  0  0
  -17.0250    2.3720    7.6850 C   0  0  2  0  0  3  0  0  0  0  0  0
  -16.3880    5.6710    6.4600 N   0  0  0  0  0  0  0  0  0  0  0  0
  -17.3300    5.6110    5.4730 C   0  0  0  0  0  3  0  0  0  0  0  0
  -17.5830    6.7270    4.6950 C   0  0  0  0  0  3  0  0  0  0  0  0
  -16.9840    7.9200    5.0570 C   0  0  0  0  0  0  0  0  0  0  0  0
  -17.2020    8.9590    4.4090 O   0  0  0  0  0  0  0  0  0  0  0  0
  -16.0300    7.9470    6.0530 N   0  0  0  0  0  0  0  0  0  0  0  0
  -15.4270    8.7440    6.1180 H   0  0  0  0  0  0  0  0  0  0  0  0
  -15.7620    6.8380    6.7930 C   0  0  0  0  0  0  0  0  0  0  0  0
  -14.9250    6.8920    7.7000 O   0  0  0  0  0  0  0  0  0  0  0  0
  -16.7760    2.0170    9.0180 O   0  0  0  0  0  0  0  0  0  0  0  0
  -16.4420    2.7980    9.5050 H   0  0  0  0  0  0  0  0  0  0  0  0
  -15.9620    2.2320    5.3490 C   0  0  0  0  0  2  0  0  0  0  0  0
  -14.9150    2.8060    4.5860 O   0  0  0  0  0  0  0  0  0  0  0  0
  -15.0290    2.9060    2.9990 P   0  0  0  0  0  0  0  0  0  0  0  0
  -16.0040    3.9880    2.7160 O   0  0  0  0  0  1  0  0  0  0  0  0
  -13.6620    3.2040    2.4980 O   0  0  0  0  0  1  0  0  0  0  0  0
  -15.5370    1.6180    2.3790 O   0  0  0  0  0  0  0  0  0  0  0  0
  1 17  1  6  0  0  0
  1  2  1  0  0  0  0
  1  5  1  0  0  0  0
  2  3  1  0  0  0  0
  3  6  1  6  0  0  0
  3  4  1  0  0  0  0
  5  4  1  0  0  0  0
  5 15  1  1  0  0  0
  6 13  1  0  0  0  0
  7  6  1  0  0  0  0
  8  9  1  0  0  0  0
  8  7  2  0  0  0  0
  9 11  1  0  0  0  0
 10  9  2  0  0  0  0
 11 12  1  0  0  0  0
 11 13  1  0  0  0  0
 13 14  2  0  0  0  0
 15 16  1  0  0  0  0
 18 17  1  0  0  0  0
 19 18  1  0  0  0  0
 20 19  1  0  0  0  0
 21 19  1  0  0  0  0
 22 19  2  0  0  0  0
M  END
$$$$
output_dock/lig-dump-rec-1.all_poses.pdbqt
 OpenBabel06202210173D

 22 23  0  0  1  0  0  0  0  0999 V2000
    8.6320   11.0960   19.2920 C   0  0  1  0  0  3  0  0  0  0  0  0
    7.5250   11.6530   18.6270 O   0  0  0  0  0  0  0  0  0  0  0  0
    7.9730   11.8830   17.3600 C   0  0  2  0  0  3  0  0  0  0  0  0
    9.0810   10.9620   16.9350 C   0  0  0  0  0  2  0  0  0  0  0  0
    9.3410   10.2380   18.2140 C   0  0  2  0  0  3  0  0  0  0  0  0
    7.9150   13.1680   16.7410 N   0  0  0  0  0  0  0  0  0  0  0  0
    9.1170   13.7700   16.5000 C   0  0  0  0  0  3  0  0  0  0  0  0
    9.1560   14.9970   15.8620 C   0  0  0  0  0  3  0  0  0  0  0  0
    7.9760   15.4950   15.3390 C   0  0  0  0  0  0  0  0  0  0  0  0
    7.9630   16.5790   14.7300 O   0  0  0  0  0  0  0  0  0  0  0  0
    6.7760   14.8680   15.6070 N   0  0  0  0  0  0  0  0  0  0  0  0
    5.9260   15.3750   15.4530 H   0  0  0  0  0  0  0  0  0  0  0  0
    6.7410   13.6780   16.2640 C   0  0  0  0  0  0  0  0  0  0  0  0
    5.6580   13.1200   16.4660 O   0  0  0  0  0  0  0  0  0  0  0  0
    8.7430    8.9770   18.0830 O   0  0  0  0  0  0  0  0  0  0  0  0
    8.2190    8.7820   18.8870 H   0  0  0  0  0  0  0  0  0  0  0  0
    9.5190   12.2030   19.8620 C   0  0  0  0  0  2  0  0  0  0  0  0
    8.8050   13.4170   20.0110 O   0  0  0  0  0  0  0  0  0  0  0  0
    8.6930   14.1220   21.4370 P   0  0  0  0  0  0  0  0  0  0  0  0
    8.6900   13.0320   22.4430 O   0  0  0  0  0  1  0  0  0  0  0  0
    9.8700   15.0230   21.5530 O   0  0  0  0  0  0  0  0  0  0  0  0
    7.4120   14.9230   21.5820 O   0  0  0  0  0  1  0  0  0  0  0  0
  1 17  1  6  0  0  0
  2  1  1  0  0  0  0
  3  6  1  1  0  0  0
  3  2  1  0  0  0  0
  4  3  1  0  0  0  0
  4  5  1  0  0  0  0
  5 15  1  6  0  0  0
  5  1  1  0  0  0  0
  7  6  1  0  0  0  0
  8  7  2  0  0  0  0
  9 11  1  0  0  0  0
  9  8  1  0  0  0  0
 10  9  2  0  0  0  0
 11 13  1  0  0  0  0
 12 11  1  0  0  0  0
 13 14  2  0  0  0  0
 13  6  1  0  0  0  0
 15 16  1  0  0  0  0
 17 18  1  0  0  0  0
 18 19  1  0  0  0  0
 19 21  2  0  0  0  0
 19 22  1  0  0  0  0
 19 20  1  0  0  0  0
M  END
$$$$
output_dock/lig-dump-rec-1.all_poses.pdbqt
 OpenBabel06202210173D

 22 23  0  0  1  0  0  0  0  0999 V2000
  -15.3040    6.1830    2.9950 C   0  0  1  0  0  3  0  0  0  0  0  0
  -14.1570    6.1890    2.1820 O   0  0  0  0  0  0  0  0  0  0  0  0
  -13.9700    7.5030    1.8710 C   0  0  2  0  0  3  0  0  0  0  0  0
  -14.5130    8.4510    2.9020 C   0  0  0  0  0  2  0  0  0  0  0  0
  -15.2050    7.4940    3.8160 C   0  0  2  0  0  3  0  0  0  0  0  0
  -13.8860    7.9750    0.5260 N   0  0  0  0  0  0  0  0  0  0  0  0
  -15.0700    8.0740   -0.1470 C   0  0  0  0  0  3  0  0  0  0  0  0
  -15.0870    8.5660   -1.4400 C   0  0  0  0  0  3  0  0  0  0  0  0
  -13.9160    9.0970   -1.9480 C   0  0  0  0  0  0  0  0  0  0  0  0
  -13.8850    9.5790   -3.0940 O   0  0  0  0  0  0  0  0  0  0  0  0
  -12.7330    8.9740   -1.2470 N   0  0  0  0  0  0  0  0  0  0  0  0
  -11.8700    9.1200   -1.7350 H   0  0  0  0  0  0  0  0  0  0  0  0
  -12.7170    8.4590    0.0110 C   0  0  0  0  0  0  0  0  0  0  0  0
  -11.6520    8.3870    0.6310 O   0  0  0  0  0  0  0  0  0  0  0  0
  -14.3720    7.3420    4.9320 O   0  0  0  0  0  0  0  0  0  0  0  0
  -14.0420    6.4200    4.9670 H   0  0  0  0  0  0  0  0  0  0  0  0
  -16.5630    6.1050    2.1320 C   0  0  0  0  0  2  0  0  0  0  0  0
  -17.7060    5.7880    2.9070 O   0  0  0  0  0  0  0  0  0  0  0  0
  -18.8390    6.8800    3.1660 P   0  0  0  0  0  0  0  0  0  0  0  0
  -20.1380    6.1830    3.0030 O   0  0  0  0  0  1  0  0  0  0  0  0
  -18.6180    7.3950    4.5430 O   0  0  0  0  0  1  0  0  0  0  0  0
  -18.7710    8.0230    2.1700 O   0  0  0  0  0  0  0  0  0  0  0  0
  1 17  1  6  0  0  0
  1  5  1  0  0  0  0
  2  1  1  0  0  0  0
  3  6  1  6  0  0  0
  3  2  1  0  0  0  0
  3  4  1  0  0  0  0
  4  5  1  0  0  0  0
  5 15  1  1  0  0  0
  7  6  1  0  0  0  0
  8  7  2  0  0  0  0
  9  8  1  0  0  0  0
  9 11  1  0  0  0  0
 10  9  2  0  0  0  0
 11 13  1  0  0  0  0
 12 11  1  0  0  0  0
 13  6  1  0  0  0  0
 13 14  2  0  0  0  0
 15 16  1  0  0  0  0
 17 18  1  0  0  0  0
 18 19  1  0  0  0  0
 19 21  1  0  0  0  0
 20 19  1  0  0  0  0
 22 19  2  0  0  0  0
M  END
$$$$
output_dock/lig-dump-rec-1.all_poses.pdbqt
 OpenBabel06202210173D

 22 23  0  0  1  0  0  0  0  0999 V2000
   11.0000   11.9290   17.7880 C   0  0  1  0  0  3  0  0  0  0  0  0
   10.2040   11.6370   18.9090 O   0  0  0  0  0  0  0  0  0  0  0  0
    8.9260   11.8400   18.4780 C   0  0  2  0  0  3  0  0  0  0  0  0
    8.7480   11.6390   17.0000 C   0  0  0  0  0  2  0  0  0  0  0  0
   10.1660   11.4350   16.5790 C   0  0  2  0  0  3  0  0  0  0  0  0
    8.0220   12.7320   19.1320 N   0  0  0  0  0  0  0  0  0  0  0  0
    8.5940   13.6900   19.9190 C   0  0  0  0  0  3  0  0  0  0  0  0
    7.7950   14.6240   20.5540 C   0  0  0  0  0  3  0  0  0  0  0  0
    6.4500   14.6540   20.2340 C   0  0  0  0  0  0  0  0  0  0  0  0
    5.6950   15.4940   20.7530 O   0  0  0  0  0  0  0  0  0  0  0  0
    5.9010   13.6660   19.4410 N   0  0  0  0  0  0  0  0  0  0  0  0
    4.9050   13.5530   19.4390 H   0  0  0  0  0  0  0  0  0  0  0  0
    6.6870   12.7310   18.8460 C   0  0  0  0  0  0  0  0  0  0  0  0
    6.1770   11.8740   18.1160 O   0  0  0  0  0  0  0  0  0  0  0  0
   10.3220   10.0580   16.3730 O   0  0  0  0  0  0  0  0  0  0  0  0
    9.4720    9.6760   16.0740 H   0  0  0  0  0  0  0  0  0  0  0  0
   11.3110   13.4240   17.7360 C   0  0  0  0  0  2  0  0  0  0  0  0
   11.0020   13.9770   16.4680 O   0  0  0  0  0  0  0  0  0  0  0  0
   11.6350   15.3670   16.0130 P   0  0  0  0  0  0  0  0  0  0  0  0
   12.1170   16.0320   17.2490 O   0  0  0  0  0  1  0  0  0  0  0  0
   12.7280   15.0390   15.0600 O   0  0  0  0  0  0  0  0  0  0  0  0
   10.6170   16.2680   15.3400 O   0  0  0  0  0  1  0  0  0  0  0  0
  1 17  1  6  0  0  0
  1  2  1  0  0  0  0
  3  4  1  6  0  0  0
  3  2  1  0  0  0  0
  3  6  1  0  0  0  0
  5 15  1  1  0  0  0
  5  4  1  0  0  0  0
  5  1  1  0  0  0  0
  6  7  1  0  0  0  0
  7  8  2  0  0  0  0
  9  8  1  0  0  0  0
  9 10  2  0  0  0  0
 11  9  1  0  0  0  0
 12 11  1  0  0  0  0
 13  6  1  0  0  0  0
 13 11  1  0  0  0  0
 14 13  2  0  0  0  0
 16 15  1  0  0  0  0
 18 17  1  0  0  0  0
 19 18  1  0  0  0  0
 19 20  1  0  0  0  0
 21 19  2  0  0  0  0
 22 19  1  0  0  0  0
M  END
$$$$
output_dock/lig-dump-rec-1.all_poses.pdbqt
 OpenBabel06202210173D

 22 23  0  0  1  0  0  0  0  0999 V2000
  -16.0880    4.7400   -1.1540 C   0  0  1  0  0  3  0  0  0  0  0  0
  -14.7060    4.9310   -0.9780 O   0  0  0  0  0  0  0  0  0  0  0  0
  -14.6160    5.8280    0.0450 C   0  0  2  0  0  3  0  0  0  0  0  0
  -15.7840    5.7860    0.9890 C   0  0  0  0  0  2  0  0  0  0  0  0
  -16.6760    4.8240    0.2780 C   0  0  2  0  0  3  0  0  0  0  0  0
  -13.9100    7.0640   -0.0690 N   0  0  0  0  0  0  0  0  0  0  0  0
  -14.5440    8.0520   -0.7660 C   0  0  0  0  0  3  0  0  0  0  0  0
  -13.9520    9.2970   -0.8870 C   0  0  0  0  0  3  0  0  0  0  0  0
  -12.8060    9.5450   -0.1540 C   0  0  0  0  0  0  0  0  0  0  0  0
  -12.2520   10.6570   -0.2040 O   0  0  0  0  0  0  0  0  0  0  0  0
  -12.1840    8.5230    0.5340 N   0  0  0  0  0  0  0  0  0  0  0  0
  -11.2350    8.6530    0.8300 H   0  0  0  0  0  0  0  0  0  0  0  0
  -12.7540    7.2920    0.6220 C   0  0  0  0  0  0  0  0  0  0  0  0
  -12.1940    6.4010    1.2680 O   0  0  0  0  0  0  0  0  0  0  0  0
  -16.5590    3.6030    0.9550 O   0  0  0  0  0  0  0  0  0  0  0  0
  -16.9670    2.8930    0.4170 H   0  0  0  0  0  0  0  0  0  0  0  0
  -16.6520    5.7990   -2.1010 C   0  0  0  0  0  2  0  0  0  0  0  0
  -16.5010    5.4180   -3.4570 O   0  0  0  0  0  0  0  0  0  0  0  0
  -16.8510    6.4400   -4.6300 P   0  0  0  0  0  0  0  0  0  0  0  0
  -15.7690    7.4550   -4.6360 O   0  0  0  0  0  1  0  0  0  0  0  0
  -16.9100    5.6380   -5.8810 O   0  0  0  0  0  0  0  0  0  0  0  0
  -18.1770    7.1410   -4.4030 O   0  0  0  0  0  1  0  0  0  0  0  0
  1 17  1  6  0  0  0
  1  2  1  0  0  0  0
  1  5  1  0  0  0  0
  2  3  1  0  0  0  0
  3  6  1  6  0  0  0
  3  4  1  0  0  0  0
  5 15  1  1  0  0  0
  5  4  1  0  0  0  0
  6 13  1  0  0  0  0
  7  6  1  0  0  0  0
  8  7  2  0  0  0  0
  8  9  1  0  0  0  0
  9 11  1  0  0  0  0
 10  9  2  0  0  0  0
 11 13  1  0  0  0  0
 11 12  1  0  0  0  0
 13 14  2  0  0  0  0
 16 15  1  0  0  0  0
 18 17  1  0  0  0  0
 19 22  1  0  0  0  0
 19 18  1  0  0  0  0
 20 19  1  0  0  0  0
 21 19  2  0  0  0  0
M  END
$$$$
output_dock/lig-dump-rec-1.all_poses.pdbqt
 OpenBabel06202210173D

 22 23  0  0  1  0  0  0  0  0999 V2000
    8.3820   14.9930   20.7950 C   0  0  1  0  0  3  0  0  0  0  0  0
    7.5840   15.8480   20.0150 O   0  0  0  0  0  0  0  0  0  0  0  0
    6.7910   15.0060   19.2940 C   0  0  2  0  0  3  0  0  0  0  0  0
    6.5420   13.6860   19.9660 C   0  0  0  0  0  2  0  0  0  0  0  0
    7.4490   13.8060   21.1460 C   0  0  2  0  0  3  0  0  0  0  0  0
    6.7250   15.0370   17.8670 N   0  0  0  0  0  0  0  0  0  0  0  0
    7.2510   13.9550   17.2220 C   0  0  0  0  0  3  0  0  0  0  0  0
    7.1890   13.8810   15.8410 C   0  0  0  0  0  3  0  0  0  0  0  0
    6.4440   14.8350   15.1720 C   0  0  0  0  0  0  0  0  0  0  0  0
    6.3310   14.7960   13.9350 O   0  0  0  0  0  0  0  0  0  0  0  0
    5.9320   15.9220   15.8530 N   0  0  0  0  0  0  0  0  0  0  0  0
    5.6340   16.7200   15.3250 H   0  0  0  0  0  0  0  0  0  0  0  0
    6.0250   16.0050   17.2060 C   0  0  0  0  0  0  0  0  0  0  0  0
    5.5330   16.9720   17.7970 O   0  0  0  0  0  0  0  0  0  0  0  0
    6.6310   14.1010   22.2450 O   0  0  0  0  0  0  0  0  0  0  0  0
    6.7390   13.4050   22.9260 H   0  0  0  0  0  0  0  0  0  0  0  0
    9.6270   14.5710   20.0140 C   0  0  0  0  0  2  0  0  0  0  0  0
   10.5640   15.6300   19.9180 O   0  0  0  0  0  0  0  0  0  0  0  0
   11.0310   16.1720   18.4930 P   0  0  0  0  0  0  0  0  0  0  0  0
   11.5920   17.5260   18.7240 O   0  0  0  0  0  1  0  0  0  0  0  0
   12.0340   15.2010   17.9840 O   0  0  0  0  0  1  0  0  0  0  0  0
    9.8760   16.2830   17.5160 O   0  0  0  0  0  0  0  0  0  0  0  0
  1 17  1  6  0  0  0
  1  5  1  0  0  0  0
  2  1  1  0  0  0  0
  3  6  1  6  0  0  0
  3  4  1  0  0  0  0
  3  2  1  0  0  0  0
  4  5  1  0  0  0  0
  5 15  1  1  0  0  0
  7  6  1  0  0  0  0
  8  7  2  0  0  0  0
  9  8  1  0  0  0  0
  9 11  1  0  0  0  0
 10  9  2  0  0  0  0
 11 13  1  0  0  0  0
 12 11  1  0  0  0  0
 13 14  2  0  0  0  0
 13  6  1  0  0  0  0
 15 16  1  0  0  0  0
 18 17  1  0  0  0  0
 19 20  1  0  0  0  0
 19 18  1  0  0  0  0
 21 19  1  0  0  0  0
 22 19  2  0  0  0  0
M  END
$$$$
output_dock/lig-dump-rec-1.all_poses.pdbqt
 OpenBabel06202210173D

 22 23  0  0  1  0  0  0  0  0999 V2000
    8.8080   17.8010   17.2250 C   0  0  1  0  0  3  0  0  0  0  0  0
    7.6850   17.1590   16.6750 O   0  0  0  0  0  0  0  0  0  0  0  0
    6.9940   16.7010   17.7570 C   0  0  2  0  0  3  0  0  0  0  0  0
    7.2170   17.5090   19.0030 C   0  0  0  0  0  2  0  0  0  0  0  0
    8.2860   18.4410   18.5360 C   0  0  2  0  0  3  0  0  0  0  0  0
    6.6360   15.3280   17.9210 N   0  0  0  0  0  0  0  0  0  0  0  0
    7.3080   14.6490   18.8970 C   0  0  0  0  0  3  0  0  0  0  0  0
    6.9930   13.3260   19.1560 C   0  0  0  0  0  3  0  0  0  0  0  0
    5.8880   12.7860   18.5230 C   0  0  0  0  0  0  0  0  0  0  0  0
    5.5440   11.6120   18.7440 O   0  0  0  0  0  0  0  0  0  0  0  0
    5.2350   13.4950   17.5350 N   0  0  0  0  0  0  0  0  0  0  0  0
    4.6220   13.0000   16.9160 H   0  0  0  0  0  0  0  0  0  0  0  0
    5.5710   14.7840   17.2620 C   0  0  0  0  0  0  0  0  0  0  0  0
    4.9530   15.4090   16.3950 O   0  0  0  0  0  0  0  0  0  0  0  0
    7.6590   19.6710   18.2950 O   0  0  0  0  0  0  0  0  0  0  0  0
    7.9600   20.0240   17.4320 H   0  0  0  0  0  0  0  0  0  0  0  0
    9.9340   16.7930   17.4530 C   0  0  0  0  0  2  0  0  0  0  0  0
   11.2080   17.3810   17.2530 O   0  0  0  0  0  0  0  0  0  0  0  0
   11.8710   17.4020   15.8030 P   0  0  0  0  0  0  0  0  0  0  0  0
   12.4460   18.7590   15.6260 O   0  0  0  0  0  1  0  0  0  0  0  0
   12.8960   16.3260   15.7950 O   0  0  0  0  0  1  0  0  0  0  0  0
   10.8550   17.1570   14.7040 O   0  0  0  0  0  0  0  0  0  0  0  0
  1 17  1  1  0  0  0
  1  5  1  0  0  0  0
  2  1  1  0  0  0  0
  2  3  1  0  0  0  0
  3  6  1  1  0  0  0
  3  4  1  0  0  0  0
  5 15  1  6  0  0  0
  5  4  1  0  0  0  0
  6  7  1  0  0  0  0
  7  8  2  0  0  0  0
  9 10  2  0  0  0  0
  9  8  1  0  0  0  0
 11  9  1  0  0  0  0
 12 11  1  0  0  0  0
 13 11  1  0  0  0  0
 13  6  1  0  0  0  0
 14 13  2  0  0  0  0
 16 15  1  0  0  0  0
 18 17  1  0  0  0  0
 19 18  1  0  0  0  0
 20 19  1  0  0  0  0
 21 19  1  0  0  0  0
 22 19  2  0  0  0  0
M  END
$$$$
output_dock/lig-dump-rec-1.all_poses.pdbqt
 OpenBabel06202210173D

 22 23  0  0  1  0  0  0  0  0999 V2000
    9.9290   12.2830   16.3980 C   0  0  1  0  0  3  0  0  0  0  0  0
   10.7380   13.0470   15.5390 O   0  0  0  0  0  0  0  0  0  0  0  0
   11.4890   13.8160   16.3780 C   0  0  2  0  0  3  0  0  0  0  0  0
   11.7080   13.1980   17.7290 C   0  0  0  0  0  2  0  0  0  0  0  0
   10.8290   11.9960   17.6260 C   0  0  2  0  0  3  0  0  0  0  0  0
   11.5280   15.2410   16.2950 N   0  0  0  0  0  0  0  0  0  0  0  0
   10.7330   15.9120   17.1790 C   0  0  0  0  0  3  0  0  0  0  0  0
   10.7420   17.2960   17.2000 C   0  0  0  0  0  3  0  0  0  0  0  0
   11.6870   17.9500   16.4290 C   0  0  0  0  0  0  0  0  0  0  0  0
   11.7570   19.1910   16.4350 O   0  0  0  0  0  0  0  0  0  0  0  0
   12.4700   17.2440   15.5380 N   0  0  0  0  0  0  0  0  0  0  0  0
   12.9450   17.7480   14.8150 H   0  0  0  0  0  0  0  0  0  0  0  0
   12.4320   15.8850   15.5000 C   0  0  0  0  0  0  0  0  0  0  0  0
   13.1640   15.2730   14.7160 O   0  0  0  0  0  0  0  0  0  0  0  0
   11.6780   10.9040   17.3990 O   0  0  0  0  0  0  0  0  0  0  0  0
   12.0470   10.5980   18.2530 H   0  0  0  0  0  0  0  0  0  0  0  0
    8.6560   13.0520   16.7490 C   0  0  0  0  0  2  0  0  0  0  0  0
    8.2070   13.8420   15.6610 O   0  0  0  0  0  0  0  0  0  0  0  0
    6.6520   13.9550   15.3280 P   0  0  0  0  0  0  0  0  0  0  0  0
    6.1880   15.2310   15.9240 O   0  0  0  0  0  1  0  0  0  0  0  0
    6.5380   13.9230   13.8460 O   0  0  0  0  0  0  0  0  0  0  0  0
    5.8530   12.8150   15.9320 O   0  0  0  0  0  1  0  0  0  0  0  0
  1 17  1  1  0  0  0
  1  5  1  0  0  0  0
  2  3  1  0  0  0  0
  2  1  1  0  0  0  0
  3  6  1  1  0  0  0
  3  4  1  0  0  0  0
  5 15  1  6  0  0  0
  5  4  1  0  0  0  0
  6  7  1  0  0  0  0
  7  8  2  0  0  0  0
  9 10  2  0  0  0  0
  9  8  1  0  0  0  0
 11  9  1  0  0  0  0
 12 11  1  0  0  0  0
 13 11  1  0  0  0  0
 13  6  1  0  0  0  0
 14 13  2  0  0  0  0
 15 16  1  0  0  0  0
 18 17  1  0  0  0  0
 19 18  1  0  0  0  0
 19 20  1  0  0  0  0
 19 22  1  0  0  0  0
 21 19  2  0  0  0  0
M  END
$$$$
output_dock/lig-dump-rec-1.all_poses.pdbqt
 OpenBabel06202210173D

 22 23  0  0  1  0  0  0  0  0999 V2000
   -7.6470   13.6010   17.0610 C   0  0  1  0  0  3  0  0  0  0  0  0
   -8.0140   13.6480   18.4180 O   0  0  0  0  0  0  0  0  0  0  0  0
   -9.0190   12.7330   18.5280 C   0  0  2  0  0  3  0  0  0  0  0  0
   -8.9430   11.6280   17.5130 C   0  0  0  0  0  2  0  0  0  0  0  0
   -7.8140   12.1120   16.6660 C   0  0  2  0  0  3  0  0  0  0  0  0
  -10.3090   13.0590   19.0460 N   0  0  0  0  0  0  0  0  0  0  0  0
  -11.2470   13.4280   18.1250 C   0  0  0  0  0  3  0  0  0  0  0  0
  -12.5370   13.7170   18.5340 C   0  0  0  0  0  3  0  0  0  0  0  0
  -12.8730   13.4610   19.8510 C   0  0  0  0  0  0  0  0  0  0  0  0
  -14.0260   13.6750   20.2620 O   0  0  0  0  0  0  0  0  0  0  0  0
  -11.9000   13.0980   20.7600 N   0  0  0  0  0  0  0  0  0  0  0  0
  -12.1050   13.1760   21.7380 H   0  0  0  0  0  0  0  0  0  0  0  0
  -10.6260   12.8470   20.3570 C   0  0  0  0  0  0  0  0  0  0  0  0
   -9.7790   12.4930   21.1840 O   0  0  0  0  0  0  0  0  0  0  0  0
   -6.6930   11.3540   17.0300 O   0  0  0  0  0  0  0  0  0  0  0  0
   -6.4110   10.8050   16.2690 H   0  0  0  0  0  0  0  0  0  0  0  0
   -8.5270   14.5450   16.2420 C   0  0  0  0  0  2  0  0  0  0  0  0
   -7.8250   15.0790   15.1320 O   0  0  0  0  0  0  0  0  0  0  0  0
   -6.2320   15.1230   15.1260 P   0  0  0  0  0  0  0  0  0  0  0  0
   -5.8090   15.2040   16.5450 O   0  0  0  0  0  1  0  0  0  0  0  0
   -5.7810   13.8780   14.4500 O   0  0  0  0  0  1  0  0  0  0  0  0
   -5.6950   16.3350   14.3880 O   0  0  0  0  0  0  0  0  0  0  0  0
  1 17  1  6  0  0  0
  1  2  1  0  0  0  0
  2  3  1  0  0  0  0
  3  4  1  6  0  0  0
  3  6  1  0  0  0  0
  5 15  1  1  0  0  0
  5  1  1  0  0  0  0
  5  4  1  0  0  0  0
  6 13  1  0  0  0  0
  7  8  2  0  0  0  0
  7  6  1  0  0  0  0
  8  9  1  0  0  0  0
  9 10  2  0  0  0  0
  9 11  1  0  0  0  0
 11 12  1  0  0  0  0
 13 11  1  0  0  0  0
 13 14  2  0  0  0  0
 16 15  1  0  0  0  0
 18 17  1  0  0  0  0
 19 18  1  0  0  0  0
 19 20  1  0  0  0  0
 21 19  1  0  0  0  0
 22 19  2  0  0  0  0
M  END
$$$$
output_dock/lig-dump-rec-1.all_poses.pdbqt
 OpenBabel06202210173D

 22 23  0  0  1  0  0  0  0  0999 V2000
  -16.1180    5.5470    6.2280 C   0  0  1  0  0  3  0  0  0  0  0  0
  -15.5830    5.8040    4.9540 O   0  0  0  0  0  0  0  0  0  0  0  0
  -16.1850    6.9640    4.5630 C   0  0  2  0  0  3  0  0  0  0  0  0
  -16.6040    7.8420    5.7060 C   0  0  0  0  0  2  0  0  0  0  0  0
  -16.3000    6.9490    6.8630 C   0  0  2  0  0  3  0  0  0  0  0  0
  -16.9180    7.0810    3.3430 N   0  0  0  0  0  0  0  0  0  0  0  0
  -18.2530    6.8040    3.4200 C   0  0  0  0  0  3  0  0  0  0  0  0
  -19.0490    6.9360    2.2960 C   0  0  0  0  0  3  0  0  0  0  0  0
  -18.4890    7.5070    1.1670 C   0  0  0  0  0  0  0  0  0  0  0  0
  -19.1700    7.6770    0.1410 O   0  0  0  0  0  0  0  0  0  0  0  0
  -17.1340    7.7690    1.1180 N   0  0  0  0  0  0  0  0  0  0  0  0
  -16.7100    7.9260    0.2240 H   0  0  0  0  0  0  0  0  0  0  0  0
  -16.3510    7.6050    2.2170 C   0  0  0  0  0  0  0  0  0  0  0  0
  -15.1470    7.8740    2.1570 O   0  0  0  0  0  0  0  0  0  0  0  0
  -15.1050    7.4200    7.4230 O   0  0  0  0  0  0  0  0  0  0  0  0
  -14.5940    7.9010    6.7400 H   0  0  0  0  0  0  0  0  0  0  0  0
  -17.4260    4.7660    6.1050 C   0  0  0  0  0  2  0  0  0  0  0  0
  -17.2110    3.3700    6.2170 O   0  0  0  0  0  0  0  0  0  0  0  0
  -17.0040    2.6940    7.6460 P   0  0  0  0  0  0  0  0  0  0  0  0
  -17.7920    3.5010    8.6090 O   0  0  0  0  0  1  0  0  0  0  0  0
  -17.4880    1.2930    7.5210 O   0  0  0  0  0  0  0  0  0  0  0  0
  -15.5500    2.7020    8.0780 O   0  0  0  0  0  1  0  0  0  0  0  0
  1 17  1  6  0  0  0
  1  5  1  0  0  0  0
  2  1  1  0  0  0  0
  3  6  1  1  0  0  0
  3  2  1  0  0  0  0
  3  4  1  0  0  0  0
  4  5  1  0  0  0  0
  5 15  1  6  0  0  0
  6  7  1  0  0  0  0
  8  7  2  0  0  0  0
  9  8  1  0  0  0  0
 10  9  2  0  0  0  0
 11  9  1  0  0  0  0
 11 13  1  0  0  0  0
 12 11  1  0  0  0  0
 13  6  1  0  0  0  0
 14 13  2  0  0  0  0
 16 15  1  0  0  0  0
 17 18  1  0  0  0  0
 18 19  1  0  0  0  0
 19 22  1  0  0  0  0
 19 20  1  0  0  0  0
 21 19  2  0  0  0  0
M  END
$$$$
output_dock/lig-dump-rec-1.all_poses.pdbqt
 OpenBabel06202210173D

 22 23  0  0  1  0  0  0  0  0999 V2000
    6.4170   12.9620   17.8590 C   0  0  1  0  0  3  0  0  0  0  0  0
    7.5130   12.1120   17.6250 O   0  0  0  0  0  0  0  0  0  0  0  0
    8.5970   12.8460   18.0050 C   0  0  2  0  0  3  0  0  0  0  0  0
    8.2910   13.8760   19.0540 C   0  0  0  0  0  2  0  0  0  0  0  0
    6.8050   13.7540   19.1330 C   0  0  2  0  0  3  0  0  0  0  0  0
    9.6990   13.1040   17.1340 N   0  0  0  0  0  0  0  0  0  0  0  0
    9.9770   14.4200   16.8970 C   0  0  0  0  0  3  0  0  0  0  0  0
   11.0570   14.7620   16.1010 C   0  0  0  0  0  3  0  0  0  0  0  0
   11.9190   13.7550   15.7080 C   0  0  0  0  0  0  0  0  0  0  0  0
   12.9200   14.0140   15.0190 O   0  0  0  0  0  0  0  0  0  0  0  0
   11.6060   12.4340   15.9570 N   0  0  0  0  0  0  0  0  0  0  0  0
   12.0910   11.7220   15.4440 H   0  0  0  0  0  0  0  0  0  0  0  0
   10.5240   12.1020   16.7120 C   0  0  0  0  0  0  0  0  0  0  0  0
   10.2810   10.9140   16.9460 O   0  0  0  0  0  0  0  0  0  0  0  0
    6.5310   13.0240   20.2970 O   0  0  0  0  0  0  0  0  0  0  0  0
    7.0840   12.2160   20.3120 H   0  0  0  0  0  0  0  0  0  0  0  0
    6.1720   13.8560   16.6440 C   0  0  0  0  0  2  0  0  0  0  0  0
    5.3690   14.9760   16.9750 O   0  0  0  0  0  0  0  0  0  0  0  0
    5.0610   16.1020   15.8890 P   0  0  0  0  0  0  0  0  0  0  0  0
    4.9000   17.3720   16.6370 O   0  0  0  0  0  1  0  0  0  0  0  0
    6.2200   16.1130   14.9570 O   0  0  0  0  0  0  0  0  0  0  0  0
    3.7830   15.8230   15.1210 O   0  0  0  0  0  1  0  0  0  0  0  0
  1 17  1  6  0  0  0
  1  5  1  0  0  0  0
  2  1  1  0  0  0  0
  2  3  1  0  0  0  0
  3  6  1  6  0  0  0
  3  4  1  0  0  0  0
  4  5  1  0  0  0  0
  5 15  1  1  0  0  0
  7  6  1  0  0  0  0
  8  7  2  0  0  0  0
  9 11  1  0  0  0  0
  9  8  1  0  0  0  0
 10  9  2  0  0  0  0
 11 13  1  0  0  0  0
 12 11  1  0  0  0  0
 13 14  2  0  0  0  0
 13  6  1  0  0  0  0
 15 16  1  0  0  0  0
 17 18  1  0  0  0  0
 19 20  1  0  0  0  0
 19 18  1  0  0  0  0
 21 19  2  0  0  0  0
 22 19  1  0  0  0  0
M  END
$$$$
output_dock/lig-dump-rec-1.all_poses.pdbqt
 OpenBabel06202210173D

 22 23  0  0  1  0  0  0  0  0999 V2000
  -17.9720    5.7740   -0.9510 C   0  0  1  0  0  3  0  0  0  0  0  0
  -17.1400    5.7920    0.1820 O   0  0  0  0  0  0  0  0  0  0  0  0
  -16.7220    7.0860    0.2740 C   0  0  2  0  0  3  0  0  0  0  0  0
  -17.6850    8.0750   -0.3190 C   0  0  0  0  0  2  0  0  0  0  0  0
  -18.6840    7.1510   -0.9310 C   0  0  2  0  0  3  0  0  0  0  0  0
  -15.3430    7.4540    0.3080 N   0  0  0  0  0  0  0  0  0  0  0  0
  -14.8820    8.1420   -0.7780 C   0  0  0  0  0  3  0  0  0  0  0  0
  -13.5690    8.5770   -0.8100 C   0  0  0  0  0  3  0  0  0  0  0  0
  -12.8110    8.4410    0.3390 C   0  0  0  0  0  0  0  0  0  0  0  0
  -11.6360    8.8430    0.3730 O   0  0  0  0  0  0  0  0  0  0  0  0
  -13.3030    7.7330    1.4180 N   0  0  0  0  0  0  0  0  0  0  0  0
  -12.6590    7.4210    2.1190 H   0  0  0  0  0  0  0  0  0  0  0  0
  -14.5850    7.2790    1.4290 C   0  0  0  0  0  0  0  0  0  0  0  0
  -15.0120    6.6740    2.4180 O   0  0  0  0  0  0  0  0  0  0  0  0
  -19.7930    7.1450   -0.0750 O   0  0  0  0  0  0  0  0  0  0  0  0
  -20.0910    8.0650    0.0770 H   0  0  0  0  0  0  0  0  0  0  0  0
  -17.1420    5.5430   -2.2140 C   0  0  0  0  0  2  0  0  0  0  0  0
  -17.8700    5.8750   -3.3830 O   0  0  0  0  0  0  0  0  0  0  0  0
  -17.1350    6.5330   -4.6360 P   0  0  0  0  0  0  0  0  0  0  0  0
  -18.0430    7.5880   -5.1470 O   0  0  0  0  0  1  0  0  0  0  0  0
  -15.8420    7.0660   -4.1310 O   0  0  0  0  0  1  0  0  0  0  0  0
  -16.8820    5.5290   -5.7450 O   0  0  0  0  0  0  0  0  0  0  0  0
  1 17  1  6  0  0  0
  1  5  1  0  0  0  0
  1  2  1  0  0  0  0
  2  3  1  0  0  0  0
  3  4  1  6  0  0  0
  3  6  1  0  0  0  0
  5  4  1  0  0  0  0
  5 15  1  1  0  0  0
  6 13  1  0  0  0  0
  7  6  1  0  0  0  0
  8  7  2  0  0  0  0
  8  9  1  0  0  0  0
  9 10  2  0  0  0  0
  9 11  1  0  0  0  0
 11 13  1  0  0  0  0
 11 12  1  0  0  0  0
 13 14  2  0  0  0  0
 15 16  1  0  0  0  0
 18 17  1  0  0  0  0
 19 21  1  0  0  0  0
 19 18  1  0  0  0  0
 20 19  1  0  0  0  0
 22 19  2  0  0  0  0
M  END
$$$$
output_dock/lig-dump-rec-1.all_poses.pdbqt
 OpenBabel06202210173D

 22 23  0  0  1  0  0  0  0  0999 V2000
  -17.2050    0.3760    5.6470 C   0  0  1  0  0  3  0  0  0  0  0  0
  -17.0290    1.1140    6.8310 O   0  0  0  0  0  0  0  0  0  0  0  0
  -17.9650    2.1010    6.7560 C   0  0  2  0  0  3  0  0  0  0  0  0
  -19.1680    1.7330    5.9360 C   0  0  0  0  0  2  0  0  0  0  0  0
  -18.7330    0.4130    5.3910 C   0  0  2  0  0  3  0  0  0  0  0  0
  -17.6370    3.4880    6.8510 N   0  0  0  0  0  0  0  0  0  0  0  0
  -17.6240    4.1800    5.6740 C   0  0  0  0  0  3  0  0  0  0  0  0
  -17.3600    5.5380    5.6780 C   0  0  0  0  0  3  0  0  0  0  0  0
  -17.2810    6.1810    6.9000 C   0  0  0  0  0  0  0  0  0  0  0  0
  -17.0760    7.4060    6.9580 O   0  0  0  0  0  0  0  0  0  0  0  0
  -17.2880    5.4520    8.0720 N   0  0  0  0  0  0  0  0  0  0  0  0
  -16.9680    5.8940    8.9120 H   0  0  0  0  0  0  0  0  0  0  0  0
  -17.5150    4.1120    8.0590 C   0  0  0  0  0  0  0  0  0  0  0  0
  -17.5480    3.4850    9.1230 O   0  0  0  0  0  0  0  0  0  0  0  0
  -19.4040   -0.5640    6.1390 O   0  0  0  0  0  0  0  0  0  0  0  0
  -19.0620   -1.4490    5.8970 H   0  0  0  0  0  0  0  0  0  0  0  0
  -16.3880    0.9940    4.5120 C   0  0  0  0  0  2  0  0  0  0  0  0
  -15.2700    0.1910    4.1780 O   0  0  0  0  0  0  0  0  0  0  0  0
  -15.4490   -1.1160    3.2830 P   0  0  0  0  0  0  0  0  0  0  0  0
  -14.2940   -1.1490    2.3530 O   0  0  0  0  0  0  0  0  0  0  0  0
  -15.4770   -2.2670    4.2240 O   0  0  0  0  0  1  0  0  0  0  0  0
  -16.7290   -1.0830    2.4690 O   0  0  0  0  0  1  0  0  0  0  0  0
  1 17  1  6  0  0  0
  1  2  1  0  0  0  0
  3  4  1  6  0  0  0
  3  2  1  0  0  0  0
  3  6  1  0  0  0  0
  5  1  1  0  0  0  0
  5  4  1  0  0  0  0
  5 15  1  1  0  0  0
  6 13  1  0  0  0  0
  7  8  2  0  0  0  0
  7  6  1  0  0  0  0
  8  9  1  0  0  0  0
  9 10  2  0  0  0  0
  9 11  1  0  0  0  0
 11 12  1  0  0  0  0
 13 11  1  0  0  0  0
 13 14  2  0  0  0  0
 16 15  1  0  0  0  0
 18 17  1  0  0  0  0
 19 18  1  0  0  0  0
 19 21  1  0  0  0  0
 20 19  2  0  0  0  0
 22 19  1  0  0  0  0
M  END
$$$$
